# opt dreiding

2-(1-Ad)N-Meax-pip-trans

0 1
 C                 -2.47526154    0.21860769   -1.27593077
 C                 -2.63526154    1.73760769   -1.11993077
 C                 -1.24326154    2.38560769   -1.12993077
 C                 -1.63726154   -0.33339231   -0.10993077
 C                 -0.40026154    1.81460769    0.02406923
 C                 -0.21326154    0.27360769   -0.09493077
 C                 -1.76926154   -0.09839231   -2.60393077
 C                  0.46873846    0.02960769   -1.45993077
 C                 -0.38626154    0.57260769   -2.61893077
 C                 -0.54826154    2.09260769   -2.46793077
 C                  0.59473846   -0.25239231    1.13806923
 C                  2.09273846    0.12560769    1.12506923
 C                  2.75773846   -0.18039231    2.47406923
 C                  2.49773846   -1.63639231    2.87706923
 N                  0.39573846   -1.66339231    1.50006923
 C                  0.99273846   -1.93539231    2.80706923
 H                 -3.48626154   -0.26039231   -1.26893077
 H                 -3.16526154    1.97460769   -0.16693077
 H                 -3.26126154    2.14860769   -1.94793077
 H                 -1.35126154    3.49160769   -1.00493077
 H                 -1.60326154   -1.44039231   -0.20893077
 H                 -2.15226154   -0.12139231    0.85706923
 H                 -0.89826154    2.07560769    0.98806923
 H                  0.58373846    2.33560769    0.02906923
 H                 -2.38326154    0.26860769   -3.46093077
 H                 -1.66326154   -1.20139231   -2.73193077
 H                  0.65573846   -1.04939231   -1.64293077
 H                  1.46573846    0.52660769   -1.49293077
 H                  0.12073846    0.35260769   -3.59193077
 H                 -1.14626154    2.50560769   -3.31393077
 H                  0.44873846    2.59360769   -2.50293077
 H                  0.15473846    0.32160769    1.98806923
 H                  2.23173846    1.21060769    0.91506923
 H                  2.63573846   -0.41739231    0.31806923
 H                  2.33773846    0.49760769    3.25506923
 H                  3.85573846    0.01760769    2.42506923
 H                  2.87573846   -1.81639231    3.91206923
 H                  3.06673846   -2.32339231    2.20806923
 H                  0.80173846   -2.99439231    3.10406923
 H                  0.46773846   -1.32639231    3.58106923
 C                  0.85973846   -2.63639231    0.52006923
 H                  0.76573846   -3.67239231    0.92006923
 H                  0.21973846   -2.63639231   -0.38593077
 H                  1.91773846   -2.48339231    0.21506923

 1 2 1.0 4 1.0 7 1.0 17 1.0
 2 3 1.0 18 1.0 19 1.0
 3 5 1.0 10 1.0 20 1.0
 4 6 1.0 21 1.0 22 1.0
 5 6 1.0 23 1.0 24 1.0
 6 8 1.0 11 1.0
 7 9 1.0 25 1.0 26 1.0
 8 9 1.0 27 1.0 28 1.0
 9 10 1.0 29 1.0
 10 30 1.0 31 1.0
 11 12 1.0 15 1.0 32 1.0
 12 13 1.0 33 1.0 34 1.0
 13 14 1.0 35 1.0 36 1.0
 14 16 1.0 37 1.0 38 1.0
 15 16 1.0 41 1.0
 16 39 1.0 40 1.0
 17
 18
 19
 20
 21
 22
 23
 24
 25
 26
 27
 28
 29
 30
 31
 32
 33
 34
 35
 36
 37
 38
 39
 40
 41 42 1.0 43 1.0 44 1.0
 42
 43
 44

