# opt dreiding

3,3-dime-N-me-pyrrol-nlp

0 1
 C                  0.95479687   -0.20256250    0.31281250
 C                  0.15879687   -1.44656250   -0.14018750
 C                 -1.21520312   -0.89956250   -0.57018750
 C                  0.13579687    0.94543750   -0.30618750
 N                 -1.22320312    0.48143750   -0.13718750
 C                 -2.23120312    1.30643750   -0.76218750
 H                  0.07179687   -2.20156250    0.67581250
 H                  0.65379687   -1.94856250   -1.00518750
 C                  2.40679687   -0.20556250   -0.18718750
 C                  0.93879687   -0.09256250    1.85081250
 H                 -2.06220312   -1.45056250   -0.09718750
 H                 -1.31920313   -0.95956250   -1.68018750
 H                  0.37079687    1.06343750   -1.39118750
 H                  0.29779687    1.91843750    0.21181250
 H                 -2.08020313    1.37243750   -1.86518750
 H                 -3.24120313    0.88443750   -0.55718750
 H                 -2.19520312    2.33243750   -0.33118750
 H                  2.45779688   -0.27656250   -1.29818750
 H                  2.96979688   -1.07056250    0.23181250
 H                  2.93379688    0.72843750    0.11281250
 H                  1.47979687   -0.94656250    2.31981250
 H                 -0.10020313   -0.09056250    2.25481250
 H                  1.43379688    0.84443750    2.19281250

 1 2 1.0 4 1.0 9 1.0 10 1.0
 2 3 1.0 7 1.0 8 1.0
 3 5 1.0 11 1.0 12 1.0
 4 5 1.0 13 1.0 14 1.0
 5 6 1.0
 6 15 1.0 16 1.0 17 1.0
 7
 8
 9 18 1.0 19 1.0 20 1.0
 10 21 1.0 22 1.0 23 1.0
 11
 12
 13
 14
 15
 16
 17
 18
 19
 20
 21
 22
 23

