# opt dreiding

acetone

0 1
 C                 -0.10396875   -1.42443750   -0.01731250
 C                 -0.15996875    0.09056250   -0.00831250
 O                 -1.21096875    0.68856250   -0.06331250
 C                  1.16803125    0.81956250    0.07268750
 H                  0.38003125   -1.79343750    0.91568750
 H                 -1.12496875   -1.86443750   -0.07831250
 H                  0.48303125   -1.77943750   -0.89431250
 H                  1.70103125    0.53856250    1.00868750
 H                  1.80403125    0.55156250   -0.80031250
 H                  1.02003125    1.92456250    0.07268750

 1 2 1.0 5 1.0 6 1.0 7 1.0
 2 3 2.0 4 1.0
 3
 4 8 1.0 9 1.0 10 1.0
 5
 6
 7
 8
 9
 10

