# opt dreiding

acetone-ecl

0 1
 C                 -0.15740625   -1.37206250    0.37518750
 C                 -0.14940625    0.08593750   -0.04481250
 O                 -1.17540625    0.65493750   -0.34181250
 C                  1.18959375    0.79693750   -0.07481250
 H                 -0.79340625   -1.50306250    1.28018750
 H                 -0.56740625   -2.00106250   -0.44681250
 H                  0.86859375   -1.73306250    0.61418750
 H                  1.07459375    1.85693750   -0.39681250
 H                  1.64859375    0.78793750    0.94018750
 H                  1.87559375    0.28793750   -0.78981250

 1 2 1.0 5 1.0 6 1.0 7 1.0
 2 3 2.0 4 1.0
 3
 4 8 1.0 9 1.0 10 1.0
 5
 6
 7
 8
 9
 10

