# opt dreiding

butane-a

0 1
 C                  0.73729412   -1.81105882    0.00000000
 C                  0.71729412   -0.27605882    0.00000000
 C                 -0.71670588    0.27594118    0.00000000
 C                 -0.73770588    1.81094118    0.00000000
 H                  1.78329412   -2.19705882    0.00000000
 H                  0.22529412   -2.21905882    0.90100000
 H                  0.22529412   -2.21905882   -0.90100000
 H                  1.26129412    0.09894118    0.89900000
 H                  1.26129412    0.09894118   -0.89900000
 H                 -1.26170588   -0.09905882   -0.89900000
 H                 -1.26170588   -0.09905882    0.89900000
 H                 -1.78270588    2.19694118    0.00000000
 H                 -0.22570588    2.21994118    0.90100000
 H                 -0.22570588    2.21994118   -0.90100000

 1 2 1.0 5 1.0 6 1.0 7 1.0
 2 3 1.0 8 1.0 9 1.0
 3 4 1.0 10 1.0 11 1.0
 4 12 1.0 13 1.0 14 1.0
 5
 6
 7
 8
 9
 10
 11
 12
 13
 14

