# opt dreiding

dimethylether-ecl

0 1
 C                  0.58965385   -1.02119231    0.21034615
 O                  0.37865385    0.25280769   -0.37365385
 C                 -0.84234615    0.84980769    0.04034615
 H                  1.56365385   -1.41519231   -0.16465385
 H                  0.64465385   -0.92819231    1.32134615
 H                 -0.22334615   -1.72219231   -0.09465385
 H                 -0.61534615    1.82380769    0.53434615
 H                 -1.47034615    1.04180769   -0.86165385
 H                 -1.41234615    0.20580769    0.75034615

 1 2 1.0 4 1.0 5 1.0 6 1.0
 2 3 1.0
 3 7 1.0 8 1.0 9 1.0
 4
 5
 6
 7
 8
 9

