# opt dreiding

diMe-sulfone

0 1
 C                  1.55752000   -0.62094000    0.00000000
 S                 -0.14848000   -0.10394000    0.00000000
 C                 -0.04948000    1.67606000    0.00000000
 O                 -0.77048000   -0.53894000   -1.23500000
 O                 -0.77048000   -0.53894000    1.23500000
 H                  2.06852000   -0.22994000    0.90800000
 H                  2.06852000   -0.22994000   -0.90800000
 H                 -1.07648000    2.10406000    0.00000000
 H                  0.49352000    2.02206000    0.90800000
 H                  0.49352000    2.02206000   -0.90800000
 H                  1.60752000   -1.73294000    0.00000000

 1 2 1.0 6 1.0 7 1.0 11 1.0
 2 3 1.0 4 2.0 5 2.0
 3 8 1.0 9 1.0 10 1.0
 4
 5
 6
 7
 8
 9
 10
 11

