# opt dreiding

ethane-g

0 1
 C                 -0.00050000   -0.76600000    0.00700000
 C                  0.00050000    0.76600000   -0.00700000
 H                  0.32750000   -1.15700000    0.99800000
 H                 -1.02050000   -1.16600000   -0.20000000
 H                  0.69050000   -1.17200000   -0.76800000
 H                 -0.32750000    1.15700000   -0.99800000
 H                 -0.69050000    1.17200000    0.76800000
 H                  1.02050000    1.16600000    0.20000000

 1 2 1.0 3 1.0 4 1.0 5 1.0
 2 6 1.0 7 1.0 8 1.0
 3
 4
 5
 6
 7
 8

