# opt dreiding

ethanol-g

0 1
 C                  0.45542308   -1.17180769    0.00000000
 C                  0.40942308    0.35919231    0.00000000
 O                 -0.93457692    0.78719231    0.00000000
 H                 -0.92957692    1.72919231    0.00000000
 H                  0.90342308    0.78019231    0.90800000
 H                  0.90342308    0.78019231   -0.90800000
 H                  1.50942308   -1.53580769    0.00000000
 H                 -0.04957692   -1.58780769    0.90200000
 H                 -0.04957692   -1.58780769   -0.90200000

 1 2 1.0 7 1.0 8 1.0 9 1.0
 2 3 1.0 5 1.0 6 1.0
 3 4 1.0
 4
 5
 6
 7
 8
 9

