# opt dreiding

ethanethiol-g

0 1
 C                 -0.13247059   -0.84532353   -0.29785294
 S                 -0.05847059    1.04167647   -0.51285294
 H                 -0.80747059    1.87767647    0.22814706
 H                 -1.17247059   -1.20532353   -0.47885294
 H                  0.54052941   -1.33432353   -1.04085294
 C                  0.31352941   -1.18232353    1.12914706
 H                  0.28652941   -2.28432353    1.29814706
 H                  1.35652941   -0.84132353    1.32314706
 H                 -0.35447059   -0.71332353    1.88814706

 1 4 1.0 5 1.0 6 1.0
 2 3 1.0
 3
 4
 5
 6 7 1.0 8 1.0 9 1.0
 7
 8
 9

