# opt dreiding

ethylamine-a

0 1
 C                  0.49065385   -1.12573077   -0.00165385
 C                  0.45665385    0.40626923   -0.02065385
 N                 -0.90234615    0.88726923    0.01834615
 H                 -1.43734615    0.52626923   -0.77065385
 H                 -1.38234615    0.54826923    0.85234615
 H                  1.53965385   -1.50173077   -0.03165385
 H                  0.01165385   -1.52473077    0.92134615
 H                 -0.04934615   -1.54873077   -0.87965385
 H                  1.00565385    0.81526923    0.86034615
 H                  0.94465385    0.79126923   -0.94665385

 1 2 1.0 6 1.0 7 1.0 8 1.0
 2 3 1.0 9 1.0 10 1.0
 3 4 1.0 5 1.0
 4
 5
 6
 7
 8
 9
 10

