# opt dreiding

methylformate-g

0 1
 C                 -0.93718750   -0.06437500    0.00496875
 O                 -0.93818750    0.99362500   -0.58003125
 O                  0.16181250   -0.75037500    0.41996875
 C                  1.40981250   -0.15137500    0.12996875
 H                 -1.86018750   -0.62637500    0.28596875
 H                  1.53781250   -0.04837500   -0.97403125
 H                  1.48581250    0.84162500    0.63396875
 H                  2.21181250   -0.81837500    0.52496875

 1 2 2.0 3 1.0 5 1.0
 2
 3 4 1.0
 4 6 1.0 7 1.0 8 1.0
 5
 6
 7
 8

