#p Opt=(Modredun,nomicro) dreiding

methylamine-ecl

0 1
 C                 -0.02905556   -0.69955556    0.03105556
 N                 -0.08105556    0.73844444   -0.05894444
 H                  0.72494444   -1.09155556   -0.68794444
 H                  0.25894444   -0.99955556    1.06405556
 H                 -1.02605556   -1.13455556   -0.21294444
 H                  0.20594444    1.16944444    0.81905556
 H                  0.57794444    1.08444444   -0.75594444

 4 1 2 6 0.0 F
