# opt dreiding

N-me-pyrrolidine-eq-nlp

0 1
 C                  1.39870833   -0.11852083    0.92027083
 C                  0.44270833   -1.32652083    0.92927083
 C                 -0.62729167   -0.96952083   -0.11372917
 C                  0.79870833    0.83247917   -0.12672917
 N                 -0.60329167    0.47647917   -0.14672917
 C                 -1.35929167    1.06747917   -1.22772917
 H                 -0.02229167   -1.44352083    1.93727083
 H                  0.96370833   -2.28052083    0.67327083
 H                 -1.64029167   -1.34552083    0.16427083
 H                 -0.34329167   -1.38452083   -1.11172917
 H                  1.26070833    0.64347917   -1.12572917
 H                  0.93370833    1.90647917    0.14127083
 H                 -0.96829167    0.75047917   -2.22272917
 H                 -2.42829167    0.76547917   -1.14572917
 H                 -1.31129167    2.17747917   -1.15572917
 H                  2.44470833   -0.40752083    0.66027083
 H                  1.41270833    0.37047917    1.92427083

 1 2 1.0 4 1.0 16 1.0 17 1.0
 2 3 1.0 7 1.0 8 1.0
 3 5 1.0 9 1.0 10 1.0
 4 5 1.0 11 1.0 12 1.0
 5 6 1.0
 6 13 1.0 14 1.0 15 1.0
 7
 8
 9
 10
 11
 12
 13
 14
 15
 16
 17

