# opt dreiding

N-me-spiro[pip2,2'adam]-b

0 1
 C                 -2.16153279   -1.30933607   -0.71166393
 C                 -2.09253279    0.22866393   -0.67966393
 C                 -0.61453279    0.70166393   -0.74766393
 C                  0.22946721    0.17166393    0.46433607
 C                  0.13046721   -1.38433607    0.32233607
 C                 -1.31653279   -1.90833607    0.42233607
 C                  0.70446721   -1.85833607   -1.02966393
 C                 -0.15253279   -1.32033607   -2.18766393
 C                 -0.16653279    0.21466393   -2.14666393
 C                 -1.59953279   -1.82133607   -2.04866393
 C                 -0.43753279    0.55466393    1.82433607
 C                 -0.16953279    2.01266393    2.22133607
 C                  1.33546721    2.29766393    2.23333607
 C                  2.10246721    1.03166393    1.83633607
 N                  1.68846721    0.48966393    0.54233607
 C                  2.22246721    1.35866393   -0.49966393
 H                 -3.22453279   -1.64333607   -0.60766393
 H                 -2.63753279    0.63366393    0.20033607
 H                 -2.67253279    0.63966393   -1.53966393
 H                 -0.61853279    1.81766393   -0.73266393
 H                  0.72846721   -1.85833607    1.13933607
 H                 -1.77553279   -1.68833607    1.41233607
 H                 -1.32253279   -3.02233607    0.35033607
 H                  0.71946721   -2.97333607   -1.06666393
 H                  1.76346721   -1.53533607   -1.15266393
 H                  0.26546721   -1.67033607   -3.16466393
 H                 -0.85253279    0.60466393   -2.93466393
 H                  0.81146721    0.61566393   -2.47266393
 H                 -2.22353279   -1.45333607   -2.89766393
 H                 -1.63153279   -2.93533607   -2.09066393
 H                 -0.09553279   -0.12133607    2.64133607
 H                 -1.53753279    0.41666393    1.84933607
 H                 -0.61353279    2.22266393    3.22433607
 H                 -0.68053279    2.69466393    1.50033607
 H                  1.65946721    2.61966393    3.25233607
 H                  1.58346721    3.14066393    1.54633607
 H                  2.00246721    0.24466393    2.61933607
 H                  3.20046721    1.23466393    1.85133607
 H                  3.23446721    1.74666393   -0.24366393
 H                  2.43446721    0.77766393   -1.42066393
 H                  1.57946721    2.24466393   -0.69766393

 1 2 1.0 6 1.0 10 1.0 17 1.0
 2 3 1.0 18 1.0 19 1.0
 3 4 1.0 9 1.0 20 1.0
 4 5 1.0 11 1.0 15 1.0
 5 6 1.0 7 1.0 21 1.0
 6 22 1.0 23 1.0
 7 8 1.0 24 1.0 25 1.0
 8 9 1.0 10 1.0 26 1.0
 9 27 1.0 28 1.0
 10 29 1.0 30 1.0
 11 12 1.0 31 1.0 32 1.0
 12 13 1.0 33 1.0 34 1.0
 13 14 1.0 35 1.0 36 1.0
 14 15 1.0 37 1.0 38 1.0
 15 16 1.0
 16 39 1.0 40 1.0 41 1.0
 17
 18
 19
 20
 21
 22
 23
 24
 25
 26
 27
 28
 29
 30
 31
 32
 33
 34
 35
 36
 37
 38
 39
 40
 41

