# opt dreiding

N-Me-acetamide-E

0 1
 C                  0.83760000   -1.29937500    0.15012500
 C                 -0.41040000   -0.46237500   -0.07687500
 O                 -1.47740000   -0.99137500   -0.27387500
 N                 -0.31640000    0.91462500   -0.05587500
 H                 -1.19640000    1.41062500   -0.21587500
 C                  0.91660000    1.62662500    0.17312500
 H                  1.27160000   -1.09337500    1.15512500
 H                  0.59860000   -2.38637500    0.10312500
 H                  1.59960000   -1.08837500   -0.63287500
 H                  0.70260000    2.71862500    0.13712500
 H                  1.33260000    1.38662500    1.17712500
 H                  1.66260000    1.39162500   -0.61987500

 1 2 1.0 7 1.0 8 1.0 9 1.0
 2 3 2.0 4 1.5
 3
 4 5 1.0 6 1.0
 5
 6 10 1.0 11 1.0 12 1.0
 7
 8
 9
 10
 11
 12

