# opt dreiding

propene-a

0 1
 C                 -0.34045833   -1.19433333   -0.06937500
 C                 -0.37245833    0.31066667   -0.03837500
 C                  0.71654167    1.07766667    0.11262500
 H                  0.69054167   -1.59833333    0.04862500
 H                 -0.96745833   -1.60533333    0.75462500
 H                 -0.74545833   -1.56533333   -1.03837500
 H                 -1.35845833    0.79366667   -0.14937500
 H                  0.63954167    2.17666667    0.12862500
 H                  1.71954167    0.63466667    0.22662500

 1 2 1.0 4 1.0 5 1.0 6 1.0
 2 3 2.0 7 1.0
 3 8 1.0 9 1.0
 4
 5
 6
 7
 8
 9

