# opt dreiding

tBu-CMe2Cl

0 1
 C                 -0.09451351   -0.94809459    0.16381081
 C                 -0.11051351    0.61990541    0.19181081
 C                 -1.53551351    1.21690541    0.17181081
 C                  0.61948649    1.21690541    1.41581081
 Cl                 0.73648649    1.28590541   -1.27618919
 H                 -1.51451351    2.33190541    0.17481081
 H                 -2.11651351    0.91990541   -0.73018919
 H                 -2.12351351    0.92090541    1.06781081
 H                  0.60648649    2.33190541    1.39881081
 H                  0.13648649    0.92090541    2.37281081
 H                  1.69048649    0.91990541    1.46881081
 C                  1.34648649   -1.51809459    0.16281081
 C                 -0.80751351   -1.55409459    1.39781081
 C                 -0.81451351   -1.51809459   -1.08418919
 H                  1.34348649   -2.63109459    0.10981081
 H                  1.94348649   -1.16509459   -0.70618919
 H                  1.90448649   -1.25809459    1.08981081
 H                 -0.79051351   -2.66709459    1.36981081
 H                 -0.32051351   -1.26109459    2.35481081
 H                 -1.87851351   -1.26109459    1.45481081
 H                 -0.76651351   -2.63109459   -1.10818919
 H                 -1.89551351   -1.25809459   -1.10418919
 H                 -0.35951351   -1.16509459   -2.03618919

 1 2 1.0 12 1.0 13 1.0 14 1.0
 2 3 1.0 4 1.0 5 1.0
 3 6 1.0 7 1.0 8 1.0
 4 9 1.0 10 1.0 11 1.0
 5
 6
 7
 8
 9
 10
 11
 12 15 1.0 16 1.0 17 1.0
 13 18 1.0 19 1.0 20 1.0
 14 21 1.0 22 1.0 23 1.0
 15
 16
 17
 18
 19
 20
 21
 22
 23

