$RunGaus
%mem=16000Mb
%nproc=8
# mp2/cc-pVTZ

2_methylthiane_eq_single_point

0 1 
 c
 c   1 cc2     
 c    2 cc3         1 ccc3      
 c    3 cc4         2 ccc4          1 dih4   
 s    4 sc5         3 scc5          2 dih5   
 c    5 cs6         4 csc6          3 dih6   
 c    6 cc7         5 ccs7          4 dih7   
 h    3 hc8         4 hcc8          5 dih8   
 h    3 hc9         4 hcc9          5 dih9   
 h    4 hc10        3 hcc10         2 dih10  
 h    4 hc11        3 hcc11         2 dih11  
 h    2 hc12        3 hcc12         4 dih12  
 h    2 hc13        3 hcc13         4 dih13  
 h    6 hc14        5 hcs14         4 dih14  
 h    1 hc15        2 hcc15         3 dih15  
 h    1 hc16        2 hcc16         3 dih16  
 h    7 hc17        6 hcc17         5 dih17  
 h    7 hc18        6 hcc18         5 dih18  
 h    7 hc19        6 hcc19         5 dih19  
 
cc2         1.537591
cc3         1.536514
ccc3        113.487
cc4         1.530735
ccc4        112.715
dih4        -58.840
sc5         1.837094
scc5        112.869
dih5         59.981
cs6         1.850225
csc6         98.697
dih6        -53.917
cc7         1.530027
ccs7        108.175
dih7        177.080
hc8         1.097430
hcc8        109.137
dih8        -62.190
hc9         1.098707
hcc9        108.677
dih9       -178.577
hc10        1.097116
hcc10       110.630
dih10       -62.272
hc11        1.094100
hcc11       111.255
dih11       178.317
hc12        1.096756
hcc12       109.400
dih12       178.944
hc13        1.100132
hcc13       109.114
dih13        63.047
hc14        1.098733
hcs14       106.765
dih14       -65.814
hc15        1.099579
hcc15       109.115
dih15      -179.385
hc16        1.098437
hcc16       109.780
dih16       -62.575
hc17        1.096225
hcc17       109.991
dih17       177.373
hc18        1.094625
hcc18       111.455
dih18        57.525
hc19        1.095547
hcc19       110.973
dih19       -63.120
 
 
 
 

