$RunGaus
%mem=16000Mb
%nproc=8
# mp2/cc-pVTZ

2_methylthiane_ax_single_point

0 1 
 c
 c   1 cc2     
 c    2 cc3         1 ccc3      
 c    3 cc4         2 ccc4          1 dih4   
 s    4 sc5         3 scc5          2 dih5   
 c    5 cs6         4 csc6          3 dih6   
 c    6 cc7         5 ccs7          4 dih7   
 h    3 hc8         4 hcc8          5 dih8   
 h    3 hc9         4 hcc9          5 dih9   
 h    4 hc10        3 hcc10         2 dih10  
 h    4 hc11        3 hcc11         2 dih11  
 h    2 hc12        3 hcc12         4 dih12  
 h    2 hc13        3 hcc13         4 dih13  
 h    6 hc14        5 hcs14         4 dih14  
 h    1 hc15        2 hcc15         3 dih15  
 h    1 hc16        2 hcc16         3 dih16  
 h    7 hc17        6 hcc17         5 dih17  
 h    7 hc18        6 hcc18         5 dih18  
 h    7 hc19        6 hcc19         5 dih19  
 
cc2         1.538418
cc3         1.536666
ccc3        113.148
cc4         1.530880
ccc4        112.784
dih4        -59.679
sc5         1.839785
scc5        112.814
dih5         59.985
cs6         1.853533
csc6         99.717
dih6        -52.849
cc7         1.534097
ccs7        112.507
dih7        -77.869
hc8         1.097595
hcc8        109.061
dih8        -62.005
hc9         1.098642
hcc9        108.696
dih9       -178.387
hc10        1.096295
hcc10       110.785
dih10       -63.231
hc11        1.094142
hcc11       111.175
dih11       177.581
hc12        1.096785
hcc12       109.298
dih12       178.963
hc13        1.098720
hcc13       109.329
dih13        63.282
hc14        1.096126
hcs14       102.522
dih14       166.108
hc15        1.098898
hcc15       109.291
dih15      -178.238
hc16        1.097012
hcc16       108.944
dih16       -61.860
hc17        1.093370
hcc17       110.748
dih17       -56.771
hc18        1.097696
hcc18       110.142
dih18      -176.527
hc19        1.094215
hcc19       112.200
dih19        63.605
 
 
 
 

