$RunGaus
%mem=16000Mb
%nproc=8
# mp2/cc-pVTZ

3_methylthiane_ax_single_point

0 1 
 c
 c   1 cc2     
 c    2 cc3         1 ccc3      
 c    3 cc4         2 ccc4          1 dih4   
 s    4 sc5         3 scc5          2 dih5   
 c    5 cs6         4 csc6          3 dih6   
 c    1 cc7         2 ccc7          3 dih7   
 h    3 hc8         4 hcc8          5 dih8   
 h    3 hc9         4 hcc9          5 dih9   
 h    4 hc10        3 hcc10         2 dih10  
 h    4 hc11        3 hcc11         2 dih11  
 h    2 hc12        3 hcc12         4 dih12  
 h    2 hc13        3 hcc13         4 dih13  
 h    6 hc14        5 hcs14         4 dih14  
 h    1 hc15        2 hcc15         3 dih15  
 h    6 hc16        5 hcs16         4 dih16  
 h    7 hc17        1 hcc17         2 dih17  
 h    7 hc18        1 hcc18         2 dih18  
 h    7 hc19        1 hcc19         2 dih19  
 
cc2         1.546079
cc3         1.538784
ccc3        114.929
cc4         1.531762
ccc4        112.837
dih4        -59.219
sc5         1.837332
scc5        112.550
dih5         60.385
cs6         1.839201
csc6         97.572
dih6        -54.139
cc7         1.536389
ccc7        113.016
dih7        -70.228
hc8         1.096281
hcc8        109.192
dih8        -62.871
hc9         1.098707
hcc9        108.580
dih9       -178.809
hc10        1.097483
hcc10       110.636
dih10       -61.650
hc11        1.094008
hcc11       111.263
dih11       178.836
hc12        1.097265
hcc12       109.349
dih12       177.863
hc13        1.099894
hcc13       108.453
dih13        62.401
hc14        1.096835
hcs14       108.307
dih14       -68.526
hc15        1.100727
hcc15       106.643
dih15       172.230
hc16        1.094701
hcs16       105.524
dih16       176.651
hc17        1.093692
hcc17       111.925
dih17        66.269
hc18        1.096143
hcc18       110.697
dih18      -173.905
hc19        1.095882
hcc19       110.684
dih19       -54.532
 
 
 
 

