$RunGaus
%mem=16000Mb
%nproc=8
# mp2/cc-pVTZ

3_methylthiane_eq_single_point

0 1 
 c
 c   1 cc2     
 c    2 cc3         1 ccc3      
 c    3 cc4         2 ccc4          1 dih4   
 s    4 sc5         3 scc5          2 dih5   
 c    5 cs6         4 csc6          3 dih6   
 c    1 cc7         2 ccc7          3 dih7   
 h    3 hc8         4 hcc8          5 dih8   
 h    3 hc9         4 hcc9          5 dih9   
 h    4 hc10        3 hcc10         2 dih10  
 h    4 hc11        3 hcc11         2 dih11  
 h    2 hc12        3 hcc12         4 dih12  
 h    2 hc13        3 hcc13         4 dih13  
 h    6 hc14        5 hcs14         4 dih14  
 h    1 hc15        2 hcc15         3 dih15  
 h    6 hc16        5 hcs16         4 dih16  
 h    7 hc17        1 hcc17         2 dih17  
 h    7 hc18        1 hcc18         2 dih18  
 h    7 hc19        1 hcc19         2 dih19  
 
cc2         1.540717
cc3         1.537551
ccc3        114.251
cc4         1.530927
ccc4        113.043
dih4        -59.611
sc5         1.835444
scc5        112.573
dih5         60.009
cs6         1.836862
csc6         97.936
dih6        -53.355
cc7         1.536527
ccc7        110.969
dih7       -178.072
hc8         1.097350
hcc8        109.051
dih8        -62.261
hc9         1.098693
hcc9        108.658
dih9       -178.524
hc10        1.097173
hcc10       110.715
dih10       -62.253
hc11        1.094080
hcc11       111.181
dih11       178.245
hc12        1.097493
hcc12       109.152
dih12       178.130
hc13        1.101136
hcc13       109.207
dih13        62.381
hc14        1.098074
hcs14       108.969
dih14       -69.429
hc15        1.099296
hcc15       108.055
dih15       -59.341
hc16        1.094770
hcs16       105.408
dih16       175.580
hc17        1.097182
hcc17       111.121
dih17       -61.964
hc18        1.095994
hcc18       110.923
dih18        57.722
hc19        1.095914
hcc19       111.436
dih19       177.822
 
 
 
 

