$RunGaus
%mem=16000Mb
%nproc=8
# mp2/cc-pVTZ

4_methylthiane_ax_single_point

0 1 
 c
 c   1 cc2     
 c    2 cc3         1 ccc3      
 c    3 cc4         2 ccc4          1 dih4   
 s    4 sc5         3 scc5          2 dih5   
 c    5 cs6         4 csc6          3 dih6   
 c    2 cc7         3 ccc7          4 dih7   
 h    3 hc8         4 hcc8          5 dih8   
 h    3 hc9         4 hcc9          5 dih9   
 h    4 hc10        3 hcc10         2 dih10  
 h    4 hc11        3 hcc11         2 dih11  
 h    2 hc12        3 hcc12         4 dih12  
 h    6 hc13        5 hcs13         4 dih13  
 h    1 hc14        2 hcc14         3 dih14  
 h    6 hc15        5 hcs15         4 dih15  
 h    1 hc16        2 hcc16         3 dih16  
 h    7 hc17        2 hcc17         3 dih17  
 h    7 hc18        2 hcc18         3 dih18  
 h    7 hc19        2 hcc19         3 dih19  
 
cc2         1.545904
cc3         1.545911
ccc3        111.421
cc4         1.532127
ccc4        114.557
dih4        -58.143
sc5         1.838786
scc5        112.813
dih5         60.197
cs6         1.838787
csc6         98.114
dih6        -52.730
cc7         1.538953
ccc7        112.486
dih7         69.232
hc8         1.097127
hcc8        108.534
dih8        -61.866
hc9         1.099286
hcc9        108.498
dih9       -177.717
hc10        1.095464
hcc10       111.503
dih10       -62.934
hc11        1.094065
hcc11       110.577
dih11       177.863
hc12        1.098764
hcc12       106.571
dih12      -174.018
hc13        1.095464
hcs13       109.063
dih13       -71.748
hc14        1.099287
hcc14       109.047
dih14       179.931
hc15        1.094064
hcs15       105.332
dih15       173.439
hc16        1.097129
hcc16       109.007
dih16       -63.661
hc17        1.096085
hcc17       110.777
dih17        56.883
hc18        1.096084
hcc18       110.777
dih18       176.310
hc19        1.095055
hcc19       112.701
dih19       -63.403
 
 
 
 

