$RunGaus
%mem=16000Mb
%nproc=8
# mp2/cc-pVTZ

ethanethiol_g_single_point

0 1 
 c
 c   1 cc2     
 s    2 sc3         1 scc3      
 h    3 hs4         2 hsc4          1 dih4   
 h    2 hc5         3 hcs5          4 dih5   
 h    2 hc6         3 hcs6          4 dih6   
 h    1 hc7         2 hcc7          3 dih7   
 h    1 hc8         2 hcc8          3 dih8   
 h    1 hc9         2 hcc9          3 dih9   
 
cc2         1.526921
sc3         1.845041
scc3        114.334
hs4         1.349368
hsc4         96.733
dih4        -61.700
hc5         1.094229
hcs5        103.957
dih5        177.388
hc6         1.093721
hcs6        108.824
dih6         63.439
hc7         1.095307
hcc7        111.266
dih7         63.195
hc8         1.093912
hcc8        111.140
dih8        -57.145
hc9         1.097012
hcc9        110.188
dih9       -177.374
 
 
 
 

