$RunGaus
%mem=16000Mb
%nproc=8
# mp2/cc-pVTZ

ethanethiol_a_single_point

0 1 
 c
 c   1 cc2     
 s    2 sc3         1 scc3      
 h    3 hs4         2 hsc4          1 dih4   
 h    2 hc5         3 hcs5          4 dih5   
 h    2 hc6         3 hcs6          4 dih6   
 h    1 hc7         2 hcc7          3 dih7   
 h    1 hc8         2 hcc8          3 dih8   
 h    1 hc9         2 hcc9          3 dih9   
 
cc2         1.527685
sc3         1.849809
scc3        109.438
hs4         1.348802
hsc4         97.100
dih4        179.999
hc5         1.093422
hcs5        108.862
dih5         59.122
hc6         1.093422
hcs6        108.862
dih6        -59.123
hc7         1.094797
hcc7        111.310
dih7         60.391
hc8         1.094797
hcc8        111.310
dih8        -60.392
hc9         1.095334
hcc9        109.926
dih9        179.999
 
 
 
 

