$RunGaus
%mem=16000Mb
%nproc=8
# mp2/cc-pVTZ

Me_vinyl_sulfone_gauche_single_point

0 1 
 c
 c   1 cc2     
 s    2 sc3         1 scc3      
 o    3 os4         2 osc4          1 dih4   
 c    3 cs5         2 csc5          1 dih5   
 o    3 os6         2 osc6          1 dih6   
 h    5 hc7         3 hcs7          2 dih7   
 h    5 hc8         3 hcs8          2 dih8   
 h    5 hc9         3 hcs9          2 dih9   
 h    1 hc10        2 hcc10         3 dih10  
 h    1 hc11        2 hcc11         3 dih11  
 h    2 hc12        3 hcs12         5 dih12  
 
cc2         1.330383
sc3         1.796685
scc3        120.506
os4         1.474097
osc4        108.306
dih4         -2.668
cs5         1.808783
csc5        103.796
dih5        111.590
os6         1.474090
osc6        107.199
dih6       -134.760
hc7         1.092229
hcs7        105.924
dih7        178.863
hc8         1.090801
hcs8        109.027
dih8        -62.027
hc9         1.091288
hcs9        109.099
dih9         60.180
hc10        1.086135
hcc10       120.842
dih10       176.987
hc11        1.086365
hcc11       120.780
dih11        -2.026
hc12        1.086136
hcs12       114.213
dih12       -71.874
 
 
 
 

