$RunGaus
%mem=16000Mb
%nproc=8
# mp2/cc-pVTZ

Me_vinyl_sulfone_s_trans_single_point

0 1 
 c
 c   1 cc2     
 s    2 sc3         1 scc3      
 o    3 os4         2 osc4          1 dih4   
 c    3 cs5         2 csc5          1 dih5   
 o    3 os6         2 osc6          1 dih6   
 h    5 hc7         3 hcs7          2 dih7   
 h    5 hc8         3 hcs8          2 dih8   
 h    5 hc9         3 hcs9          2 dih9   
 h    1 hc10        2 hcc10         3 dih10  
 h    1 hc11        2 hcc11         3 dih11  
 h    2 hc12        3 hcs12         5 dih12  
 
cc2         1.330287
sc3         1.803558
scc3        120.845
os4         1.474160
osc4        108.753
dih4         65.884
cs5         1.807305
csc5        102.533
dih5        180.000
os6         1.474160
osc6        108.753
dih6        -65.884
hc7         1.091661
hcs7        105.468
dih7        180.000
hc8         1.091381
hcs8        109.421
dih8        -61.471
hc9         1.091381
hcs9        109.421
dih9         61.471
hc10        1.085805
hcc10       120.655
dih10       180.000
hc11        1.086194
hcc11       121.929
dih11         0.000
hc12        1.086658
hcs12       115.216
dih12         0.000
 
 
 
 

