$RunGaus
%mem=16000Mb
%nproc=8
# mp2/cc-pVTZ

MeEt_sulfone_g_single_point

0 1 
 c
 c   1 cc2     
 s    2 sc3         1 scc3      
 o    3 os4         2 osc4          1 dih4   
 c    3 cs5         2 csc5          1 dih5   
 o    3 os6         2 osc6          1 dih6   
 h    1 hc7         2 hcc7          3 dih7   
 h    1 hc8         2 hcc8          3 dih8   
 h    1 hc9         2 hcc9          3 dih9   
 h    2 hc10        3 hcs10         5 dih10  
 h    2 hc11        3 hcs11         5 dih11  
 h    5 hc12        3 hcs12         2 dih12  
 h    5 hc13        3 hcs13         2 dih13  
 h    5 hc14        3 hcs14         2 dih14  
 
cc2         1.525666
sc3         1.824507
scc3        114.382
os4         1.475220
osc4        107.078
dih4        178.258
cs5         1.810811
csc5        104.989
dih5        -67.717
os6         1.475666
osc6        108.222
dih6         46.974
hc7         1.094612
hcc7        109.327
dih7       -174.260
hc8         1.092669
hcc8        110.800
dih8        -54.815
hc9         1.094492
hcc9        112.074
dih9         66.618
hc10        1.094729
hcs10       102.397
dih10       170.970
hc11        1.094163
hcs11       106.090
dih11        57.963
hc12        1.091774
hcs12       105.453
dih12      -178.501
hc13        1.091208
hcs13       109.263
dih13       -60.043
hc14        1.090699
hcs14       109.706
dih14        62.912
 
 
 
 

