$RunGaus
%mem=16000Mb
%nproc=8
# mp2/cc-pVTZ

MeEt_sulfone_a_single_point

0 1 
 c
 c   1 cc2     
 s    2 sc3         1 scc3      
 o    3 os4         2 osc4          1 dih4   
 c    3 cs5         2 csc5          1 dih5   
 o    3 os6         2 osc6          1 dih6   
 h    1 hc7         2 hcc7          3 dih7   
 h    1 hc8         2 hcc8          3 dih8   
 h    1 hc9         2 hcc9          3 dih9   
 h    2 hc10        3 hcs10         5 dih10  
 h    2 hc11        3 hcs11         5 dih11  
 h    5 hc12        3 hcs12         2 dih12  
 h    5 hc13        3 hcs13         2 dih13  
 h    5 hc14        3 hcs14         2 dih14  
 
cc2         1.528154
sc3         1.825316
scc3        110.654
os4         1.475946
osc4        108.138
dih4         65.812
cs5         1.810107
csc5        103.821
dih5        180.000
os6         1.475946
osc6        108.138
dih6        -65.812
hc7         1.094166
hcc7        109.222
dih7        180.000
hc8         1.092867
hcc8        110.935
dih8        -60.474
hc9         1.092867
hcc9        110.935
dih9         60.474
hc10        1.094175
hcs10       106.187
dih10        58.253
hc11        1.094175
hcs11       106.187
dih11       -58.253
hc12        1.091897
hcs12       105.623
dih12       180.000
hc13        1.091252
hcs13       109.393
dih13       -61.385
hc14        1.091252
hcs14       109.393
dih14        61.385
 
 
 
 

