$RunGaus
%mem=16000Mb
%nproc=8
# mp2/cc-pVTZ

methylethylsulfide_g_single_point

0 1 
 c
 c   1 cc2     
 s    2 sc3         1 scc3      
 c    3 cs4         2 csc4          1 dih4   
 h    1 hc5         2 hcc5          3 dih5   
 h    1 hc6         2 hcc6          3 dih6   
 h    2 hc7         3 hcs7          4 dih7   
 h    1 hc8         2 hcc8          3 dih8   
 h    2 hc9         3 hcs9          4 dih9   
 h    4 hc10        3 hcs10         2 dih10  
 h    4 hc11        3 hcs11         2 dih11  
 h    4 hc12        3 hcs12         2 dih12  
 
cc2         1.528812
sc3         1.837288
scc3        115.145
cs4         1.827885
csc4        100.952
dih4        -70.848
hc5         1.096969
hcc5        110.174
dih5       -177.747
hc6         1.094137
hcc6        110.970
dih6        -57.777
hc7         1.094844
hcs7        104.162
dih7        168.079
hc8         1.094666
hcc8        111.752
dih8         62.837
hc9         1.096165
hcs9        108.424
dih9         54.396
hc10        1.092565
hcs10       106.631
dih10      -176.900
hc11        1.094172
hcs11       111.042
dih11       -58.691
hc12        1.092840
hcs12       112.022
dih12        64.535
 
 
 
 

