$RunGaus
%mem=16000Mb
%nproc=8
# mp2/cc-pVTZ

methylethylsulfide_a_single_point

0 1 
 c
 c   1 cc2     
 s    2 sc3         1 scc3      
 c    3 cs4         2 csc4          1 dih4   
 h    1 hc5         2 hcc5          3 dih5   
 h    1 hc6         2 hcc6          3 dih6   
 h    2 hc7         3 hcs7          4 dih7   
 h    1 hc8         2 hcc8          3 dih8   
 h    2 hc9         3 hcs9          4 dih9   
 h    4 hc10        3 hcs10         2 dih10  
 h    4 hc11        3 hcs11         2 dih11  
 h    4 hc12        3 hcs12         2 dih12  
 
cc2         1.528873
sc3         1.837809
scc3        110.345
cs4         1.826157
csc4         99.729
dih4       -179.999
hc5         1.095350
hcc5        110.085
dih5       -180.000
hc6         1.094684
hcc6        111.231
dih6        -60.310
hc7         1.095791
hcs7        108.676
dih7         58.715
hc8         1.094682
hcc8        111.230
dih8         60.310
hc9         1.095790
hcs9        108.676
dih9        -58.714
hc10        1.092543
hcs10       107.073
dih10      -179.999
hc11        1.094072
hcs11       111.278
dih11       -61.339
hc12        1.094072
hcs12       111.278
dih12        61.340
 
 
 
 

