$RunGaus
%mem=16000Mb
%nproc=8
# mp2/cc-pVTZ

s_methylthianium_eq_sp_single_point

1 1 
 c
 c   1 cc2     
 c    2 cc3         1 ccc3      
 c    3 cc4         2 ccc4          1 dih4   
 s    4 sc5         3 scc5          2 dih5   
 c    5 cs6         4 csc6          3 dih6   
 c    5 cs7         4 csc7          3 dih7   
 h    3 hc8         4 hcc8          5 dih8   
 h    3 hc9         4 hcc9          5 dih9   
 h    4 hc10        3 hcc10         2 dih10  
 h    4 hc11        3 hcc11         2 dih11  
 h    2 hc12        3 hcc12         4 dih12  
 h    2 hc13        3 hcc13         4 dih13  
 h    6 hc14        5 hcs14         4 dih14  
 h    1 hc15        2 hcc15         3 dih15  
 h    6 hc16        5 hcs16         4 dih16  
 h    1 hc17        2 hcc17         3 dih17  
 h    7 hc18        5 hcs18         4 dih18  
 h    7 hc19        5 hcs19         4 dih19  
 h    7 hc20        5 hcs20         4 dih20  
 
cc2         1.537453
cc3         1.537454
ccc3        113.288
cc4         1.534117
ccc4        113.438
dih4        -60.152
sc5         1.845060
scc5        109.452
dih5         61.323
cs6         1.845057
csc6         99.548
dih6        -56.575
cs7         1.821894
csc7        103.714
dih7       -163.343
hc8         1.096878
hcc8        109.721
dih8        -62.834
hc9         1.095571
hcc9        106.480
dih9       -177.486
hc10        1.094792
hcc10       112.281
dih10       -57.767
hc11        1.093086
hcc11       112.410
dih11       178.328
hc12        1.093881
hcc12       108.859
dih12       178.590
hc13        1.098060
hcc13       109.609
dih13        62.612
hc14        1.094792
hcs14       107.334
dih14       -65.529
hc15        1.095571
hcc15       110.048
dih15       179.318
hc16        1.093086
hcs16       105.597
dih16       177.797
hc17        1.096878
hcc17       110.530
dih17       -63.563
hc18        1.091481
hcs18       110.517
dih18        51.806
hc19        1.091873
hcs19       107.435
dih19       172.979
hc20        1.091873
hcs20       107.435
dih20       -69.368
 
 
 
 

