$RunGaus
%mem=16000Mb
%nproc=8
# mp2/cc-pVTZ

sulfolane_envelope_single_point

0 1 
 c
 c   1 cc2     
 s    2 sc3         1 scc3      
 c    3 cs4         2 csc4          1 dih4   
 c    4 cc5         3 ccs5          2 dih5   
 o    3 os6         2 osc6          1 dih6   
 o    3 os7         2 osc7          1 dih7   
 h    2 hc8         3 hcs8          6 dih8   
 h    2 hc9         3 hcs9          6 dih9   
 h    4 hc10        3 hcs10         2 dih10  
 h    4 hc11        3 hcs11         2 dih11  
 h    5 hc12        4 hcc12         3 dih12  
 h    5 hc13        4 hcc13         3 dih13  
 h    1 hc14        2 hcc14         3 dih14  
 h    1 hc15        2 hcc15         3 dih15  
 
cc2         1.537234
sc3         1.825112
scc3        104.701
cs4         1.825125
csc4         92.692
dih4        -37.351
cc5         1.537258
ccs5        104.706
dih5         37.335
os6         1.473960
osc6        111.806
dih6       -152.144
os7         1.477576
osc7        108.313
dih7         72.949
hc8         1.091496
hcs8        107.950
dih8         85.548
hc9         1.093411
hcs9        106.228
dih9        -31.877
hc10        1.093409
hcs10       106.227
dih10       -82.933
hc11        1.091495
hcs11       107.948
dih11       159.645
hc12        1.093343
hcc12       109.644
dih12      -148.736
hc13        1.092243
hcc13       109.483
dih13        93.825
hc14        1.093343
hcc14       109.646
dih14       148.782
hc15        1.092244
hcc15       109.480
dih15       -93.779
 
 
 
 

