$RunGaus
%mem=16000Mb
%nproc=8
# mp2/cc-pVTZ

thiacyclohexane_twb_single_point

0 1 
 c
 s   1 sc2     
 c    2 cs3         1 csc3      
 c    3 cc4         2 ccs4          1 dih4   
 c    4 cc5         3 ccc5          2 dih5   
 c    5 cc6         4 ccc6          3 dih6   
 h    3 hc7         4 hcc7          5 dih7   
 h    3 hc8         4 hcc8          5 dih8   
 h    4 hc9         3 hcc9          2 dih9   
 h    4 hc10        3 hcc10         2 dih10  
 h    5 hc11        4 hcc11         3 dih11  
 h    5 hc12        4 hcc12         3 dih12  
 h    6 hc13        5 hcc13         4 dih13  
 h    6 hc14        5 hcc14         4 dih14  
 h    1 hc15        2 hcs15         3 dih15  
 h    1 hc16        2 hcs16         3 dih16  
 
sc2         1.849198
cs3         1.849181
csc3         99.562
cc4         1.530553
ccs4        111.999
dih4        -31.237
cc5         1.546029
ccc5        112.909
dih5         67.988
cc6         1.546028
ccc6        113.858
dih6        -34.669
hc7         1.093451
hcc7        111.104
dih7       -174.280
hc8         1.095608
hcc8        110.866
dih8        -54.585
hc9         1.097348
hcc9        109.200
dih9       -169.987
hc10        1.096571
hcc10       108.428
dih10       -54.474
hc11        1.097001
hcc11       108.607
dih11      -157.147
hc12        1.097001
hcc12       109.656
dih12        87.231
hc13        1.097346
hcc13       109.468
dih13      -156.549
hc14        1.096571
hcc14       110.242
dih14        86.767
hc15        1.095607
hcs15       109.451
dih15        92.140
hc16        1.093449
hcs16       105.523
dih16      -152.247
 
 
 
 

