$RunGaus
%mem=16000Mb
%nproc=8
# opt  b3lyp/6-31+g(d,p)   

2-(1-Ad)-N-Meax-pip-ecl

0 1
 C                 -2.35182308    0.02406154   -1.47190000
 C                 -2.77882308    1.45006154   -1.09990000
 C                 -1.51582308    2.30506154   -0.93290000
 C                 -1.47082308   -0.56493846   -0.35690000
 C                 -0.62582308    1.68706154    0.16010000
 C                 -0.15582308    0.23006154   -0.16690000
 C                 -1.55782308    0.04006154   -2.78890000
 C                  0.59417692    0.38106154   -1.50990000
 C                 -0.31482308    0.92806154   -2.62490000
 C                 -0.74682308    2.35606154   -2.26090000
 C                  0.76917692   -0.20093846    1.03610000
 C                  2.28117692   -0.36193846    0.76610000
 C                  3.03617692   -0.48293846    2.10310000
 C                  2.46217692   -1.58993846    2.99610000
 N                  0.30817692   -1.42593846    1.70410000
 C                  0.92317692   -1.55093846    3.02510000
 H                 -3.26682308   -0.60693846   -1.59990000
 H                 -3.37182308    1.44306154   -0.15490000
 H                 -3.43782308    1.87906154   -1.89190000
 H                 -1.80982308    3.34306154   -0.63790000
 H                 -1.28582308   -1.61793846   -0.65290000
 H                 -2.04582308   -0.59393846    0.59810000
 H                 -1.19582308    1.70106154    1.11910000
 H                  0.25917692    2.35306154    0.30610000
 H                 -2.19782308    0.42606154   -3.61690000
 H                 -1.25482308   -0.99593846   -3.07190000
 H                  0.97617692   -0.62093846   -1.81490000
 H                  1.47417692    1.05806154   -1.42490000
 H                  0.25217692    0.95106154   -3.58990000
 H                 -1.38682308    2.78806154   -3.06590000
 H                  0.14417692    3.02006154   -2.16690000
 H                  0.68717692    0.61406154    1.79210000
 H                  2.68017692    0.55106154    0.26710000
 H                  2.51317692   -1.21793846    0.09310000
 H                  2.95817692    0.48706154    2.65110000
 H                  4.12417692   -0.65793846    1.92110000
 H                  2.86217692   -1.48493846    4.03410000
 H                  2.83217692   -2.57993846    2.64310000
 H                  0.53017692   -2.45993846    3.54010000
 H                  0.59617692   -0.69193846    3.65810000
 C                  0.52717692   -2.65893846    0.94810000
 H                 -0.18582308   -3.44193846    1.29710000
 H                  0.39317692   -2.53293846   -0.14590000
 H                  1.55017692   -3.07593846    1.05610000
