$RunGaus
%mem=16000Mb
%nproc=8
# opt  b3lyp/6-31+g(d,p)   

3,3diMe-N-Me-azetidine-NI

0 1
 C                 -0.57501786   -0.56491071    0.17673214
 C                 -0.60801786    0.98708929   -0.01326786
 C                  0.96198214   -0.63791071   -0.10226786
 N                  0.79198214    0.77808929   -0.24126786
 C                 -1.40501786   -1.30891071   -0.87626786
 C                 -0.93801786   -0.99391071    1.60373214
 C                  1.78598214    1.75408929   -0.55026786
 H                 -0.78701786    1.58508929    0.90973214
 H                 -1.11801786    1.35208929   -0.93426786
 H                  1.25798214   -1.10691071   -1.06926786
 H                  1.60198214   -0.88891071    0.77373214
 H                 -1.13701786   -0.99391071   -1.91026786
 H                 -1.23901786   -2.40791071   -0.80226786
 H                 -2.49101786   -1.11091071   -0.73126786
 H                 -2.01201786   -0.78691071    1.81373214
 H                 -0.76001786   -2.08391071    1.74273214
 H                 -0.33301786   -0.45091071    2.36473214
 H                  1.85098214    1.87508929   -1.65526786
 H                  1.51598214    2.73008929   -0.08726786
 H                  2.77498214    1.42808929   -0.15626786

 
