$RunGaus
%mem=16000Mb
%nproc=8
# opt  b3lyp/6-31+g(d,p)   

Adamantyl-CMe2Cl-ts

0 1
 C                 -1.69233621   -1.86778448   -1.07980172
 C                 -2.01733621   -0.37178448   -0.95580172
 C                 -1.29633621    0.21421552    0.27019828
 C                 -0.17333621   -2.02578448   -1.23480172
 C                  0.53666379   -1.42978448   -0.00580172
 C                  0.24966379    0.08321552    0.19019828
 C                 -1.56233621    0.36421552   -2.22380172
 C                 -0.04333621    0.19021552   -2.37080172
 C                  0.66566379    0.77421552   -1.13580172
 C                  0.29666379   -1.30078448   -2.50380172
 C                  1.00066379    0.68721552    1.45519828
 C                  1.83866379   -0.34078448    2.25319828
 C                  1.96666379    1.85321552    1.12919828
 Cl                -0.15133621    1.38621552    2.68819828
 H                 -2.22133621   -2.30878448   -1.95780172
 H                 -2.05033621   -2.41778448   -0.17680172
 H                 -3.12333621   -0.24578448   -0.83580172
 H                 -1.68133621   -0.31578448    1.17319828
 H                 -1.58833621    1.28821552    0.35019828
 H                  0.07466379   -3.11278448   -1.31980172
 H                  1.62966379   -1.60178448   -0.13380172
 H                  0.20266379   -2.00778448    0.88719828
 H                 -1.82433621    1.44721552   -2.15880172
 H                 -2.08833621   -0.04178448   -3.11980172
 H                  0.29966379    0.72821552   -3.28980172
 H                  0.42866379    1.86321552   -1.09780172
 H                  1.76266379    0.66921552   -1.29880172
 H                 -0.19933621   -1.73378448   -3.40480172
 H                  1.39566379   -1.43678448   -2.64380172
 H                  2.33966379    0.12121552    3.13619828
 H                  1.22366379   -1.17478448    2.65919828
 H                  2.66266379   -0.76978448    1.64019828
 H                  2.46466379    2.25421552    2.04219828
 H                  2.79666379    1.52921552    0.46219828
 H                  1.45066379    2.72221552    0.66219828

