$RunGaus
%mem=16000Mb
%nproc=8
# opt  b3lyp/6-31+g(d,p)   

Adamantyl-CMe2Cl

0 1
 C                 -1.98471552   -1.40373276   -1.11207759
 C                 -1.97671552    0.13226724   -1.12607759
 C                 -1.23671552    0.65726724    0.11692241
 C                 -0.53371552   -1.90773276   -1.12607759
 C                  0.20728448   -1.38473276    0.11692241
 C                  0.23428448    0.16526724    0.17092241
 C                 -1.27171552    0.63826724   -2.39307759
 C                  0.17628448    0.12526724   -2.39207759
 C                  0.90928448    0.64326724   -1.14107759
 C                  0.17728448   -1.41073276   -2.39307759
 C                  0.98728448    0.69826724    1.44392241
 C                  2.45128448    0.21226724    1.54692241
 C                  1.01728448    2.24026724    1.54692241
 Cl                 0.16128448    0.11326724    2.95892241
 H                 -2.53871552   -1.79473276   -1.99707759
 H                 -2.51571552   -1.77873276   -0.20507759
 H                 -3.03171552    0.50526724   -1.11907759
 H                 -1.79771552    0.33326724    1.02192241
 H                 -1.28071552    1.76926724    0.09392241
 H                 -0.53371552   -3.02673276   -1.11907759
 H                  1.24128448   -1.79673276    0.09392241
 H                 -0.28571552   -1.80573276    1.02192241
 H                 -1.28571552    1.75326724   -2.42607759
 H                 -1.80871552    0.28126724   -3.30407759
 H                  0.69828448    0.49326724   -3.31007759
 H                  0.93328448    1.75526724   -1.19007759
 H                  1.96628448    0.29526724   -1.19007759
 H                 -0.33771552   -1.79873276   -3.30407759
 H                  1.22428448   -1.79673276   -2.42607759
 H                  2.94928448    0.59726724    2.46692241
 H                  2.54128448   -0.89573276    1.58992241
 H                  3.07028448    0.57126724    0.69492241
 H                  1.54528448    2.58126724    2.46692241
 H                  1.56228448    2.70426724    0.69492241
 H                  0.00228448    2.69526724    1.58992241

