$RunGaus
%mem=16000Mb
%nproc=8
# opt  b3lyp/6-31+g(d,p)   

butane-a

0 1
 C                  0.73729412   -1.81105882    0.00000000
 C                  0.71729412   -0.27605882    0.00000000
 C                 -0.71670588    0.27594118    0.00000000
 C                 -0.73770588    1.81094118    0.00000000
 H                  1.78329412   -2.19705882    0.00000000
 H                  0.22529412   -2.21905882    0.90100000
 H                  0.22529412   -2.21905882   -0.90100000
 H                  1.26129412    0.09894118    0.89900000
 H                  1.26129412    0.09894118   -0.89900000
 H                 -1.26170588   -0.09905882   -0.89900000
 H                 -1.26170588   -0.09905882    0.89900000
 H                 -1.78270588    2.19694118    0.00000000
 H                 -0.22570588    2.21994118    0.90100000
 H                 -0.22570588    2.21994118   -0.90100000

 
