$RunGaus
%mem=16000Mb
%nproc=8
# opt  b3lyp/6-31+g(d,p)   

dimethylether-g

0 1
 C                  0.52773077   -1.05730769    0.14511538
 O                  0.43673077    0.29269231   -0.27888462
 C                 -0.82026923    0.86069231    0.04211538
 H                  1.53573077   -1.44130769   -0.13688462
 H                  0.41373077   -1.12130769    1.25311538
 H                 -0.24926923   -1.67430769   -0.36588462
 H                 -0.97626923    0.85569231    1.14711538
 H                 -0.82426923    1.91669231   -0.31788462
 H                 -1.63826923    0.30269231   -0.47188462

