$RunGaus
%mem=16000Mb
%nproc=8
# opt  b3lyp/6-31+g(d,p)   

ethane-eclip

0 1
 C                 -0.00050000   -0.76705556    0.00700000
 C                  0.00050000    0.76694444   -0.00700000
 H                  1.03350000   -1.17505556    0.08900000
 H                 -0.58650000   -1.16705556    0.86600000
 H                 -0.44950000   -1.18205556   -0.92500000
 H                 -0.44850000    1.16694444   -0.94500000
 H                 -0.58450000    1.18294444    0.84600000
 H                  1.03550000    1.17494444    0.06900000

