$RunGaus
%mem=16000Mb
%nproc=8
# opt  b3lyp/6-31+g(d,p)   

ethane-g

0 1
 C                 -0.00050000   -0.76600000    0.00700000
 C                  0.00050000    0.76600000   -0.00700000
 H                  0.32750000   -1.15700000    0.99800000
 H                 -1.02050000   -1.16600000   -0.20000000
 H                  0.69050000   -1.17200000   -0.76800000
 H                 -0.32750000    1.15700000   -0.99800000
 H                 -0.69050000    1.17200000    0.76800000
 H                  1.02050000    1.16600000    0.20000000

