$RunGaus
%mem=16000Mb
%nproc=8
# opt  b3lyp/6-31+g(d,p)   

ethylamine-ecl

0 1
 C                  0.49403846   -1.13123077   -0.01642308
 C                  0.45303846    0.40476923   -0.00242308
 N                 -0.90296154    0.89476923    0.01957692
 H                 -1.42396154    0.55576923   -0.78842308
 H                 -1.40196154    0.54276923    0.83557692
 H                 -0.52796154   -1.57623077   -0.00542308
 H                  1.01203846   -1.51623077   -0.92442308
 H                  1.03603846   -1.53123077    0.87157692
 H                  0.98403846    0.80276923    0.89357692
 H                  0.96003846    0.81776923   -0.90642308

