$RunGaus
%mem=16000Mb
%nproc=8
# opt  b3lyp/6-31+g(d,p)   

methylamine-g

0 1
 C                 -0.04455556   -0.69855556    0.00000000
 N                 -0.06755556    0.74044444    0.00000000
 H                  1.01244444   -1.04955556    0.00000000
 H                 -0.55955556   -1.08255556    0.91000000
 H                 -0.55955556   -1.08255556   -0.91000000
 H                  0.42344444    1.11144444    0.81200000
 H                  0.42344444    1.11144444   -0.81200000



