$RunGaus
%mem=16000Mb
%nproc=8
# opt  b3lyp/6-31+g(d,p)   

methanethiol-g

0 1
 C                 -0.05296154   -1.21511538    0.09230769
 S                 -0.00496154    0.66888462    0.00830769
 H                  0.58403846    1.31988462   -1.01069231
 H                  0.99003846   -1.60411538    0.10830769
 H                 -0.58796154   -1.52311538    1.01830769
 H                 -0.58896154   -1.60411538   -0.80269231

 

