$RunGaus
%mem=16000Mb
%nproc=8
# opt  b3lyp/6-31+g(d,p)   

N-me-piperidine-sofa-ax

0 1
 C                 -1.35030357   -0.84303571   -0.26787500
 C                 -0.16530357   -1.65503571    0.28412500
 C                  0.99969643   -0.87403571    0.91812500
 C                  0.85469643    0.65296429    0.94912500
 N                  0.09469643    1.20996429   -0.15587500
 C                 -1.25730357    0.68096429   -0.11587500
 H                 -2.31430357   -1.20403571    0.16612500
 H                 -1.43230357   -1.06403571   -1.35887500
 H                  0.22369643   -2.34203571   -0.50587500
 H                 -0.56930357   -2.34303571    1.06612500
 H                  1.92169643   -1.10903571    0.33312500
 H                  1.21569643   -1.25103571    1.94712500
 H                  1.85969643    1.13696429    0.99812500
 H                  0.35269643    0.94196429    1.90412500
 C                  0.73969643    0.99596429   -1.44087500
 H                 -1.88330357    1.18696429   -0.88987500
 H                 -1.72030357    0.96996429    0.85912500
 H                  1.75269643    1.46096429   -1.44487500
 H                  0.85169643   -0.08303571   -1.69087500
 H                  0.15169643    1.48296429   -2.25287500

