$RunGaus
%mem=16000Mb
%nproc=8
# opt  b3lyp/6-31+g(d,p)   

N-me-pyrrolidine-eq-lp

0 1
 C                  1.57479167   -0.19941667    0.55245833
 C                  0.71779167   -1.46941667    0.39045833
 C                 -0.58020833   -0.96541667   -0.26254167
 C                  0.69479167    0.92358333   -0.02054167
 N                 -0.65820833    0.42658333    0.14145833
 C                 -1.65120833    1.19058333   -0.58754167
 H                  0.49779167   -1.91741667    1.38945833
 H                  1.21979167   -2.24341667   -0.23654167
 H                 -1.47920833   -1.53641667    0.07045833
 H                 -0.49620833   -1.04341667   -1.37354167
 H                  0.92979167    1.06858333   -1.10354167
 H                  0.83779167    1.89458333    0.51045833
 H                 -1.44720833    1.19258333   -1.68354167
 H                 -2.66520833    0.76058333   -0.41654167
 H                 -1.66320833    2.24458333   -0.22654167
 H                  2.54979167   -0.27441667    0.01345833
 H                  1.78779167   -0.01141667    1.63245833

