$RunGaus
%mem=16000Mb
%nproc=8
# opt  b3lyp/6-31+g(d,p)   

N-me-piperidine ch-NI

0 1
 C                 -1.47742857   -0.98641071   -0.67637500
 C                 -1.50942857    0.54158929   -0.56637500
 C                 -0.57342857   -1.54241071    0.42862500
 C                 -0.09642857    1.12758929   -0.67937500
 C                  0.84257143   -0.96441071    0.31962500
 N                  0.85357143    0.47158929    0.18462500
 C                  1.82857143    1.25158929    0.90262500
 H                 -1.08842857   -1.28941071   -1.67737500
 H                 -2.50942857   -1.40141071   -0.57737500
 H                 -1.95242857    0.83258929    0.41662500
 H                 -2.16542857    0.97058929   -1.36137500
 H                 -0.53742857   -2.65641071    0.37062500
 H                 -1.00442857   -1.28041071    1.42462500
 H                 -0.13742857    2.21958929   -0.45537500
 H                  0.27357143    1.01658929   -1.72537500
 H                  1.35257143   -1.38641071   -0.57737500
 H                  1.43257143   -1.27641071    1.21362500
 H                  2.76857143    0.67358929    1.05162500
 H                  2.09457143    2.17358929    0.33662500
 H                  1.41157143    1.53758929    1.89562500

