$RunGaus
%mem=16000Mb
%nproc=8
# opt  b3lyp/6-31+g(d,p)   

N-me-pyrrolidine-NI-nlp

0 1
 C                  1.26377083   -0.03747917    1.09060417
 C                  0.56377083   -1.36747917    0.76860417
 C                 -0.77022917   -0.91547917    0.15460417
 C                  0.83377083    0.87152083   -0.07239583
 N                 -0.44822917    0.34652083   -0.45139583
 C                 -1.32622917    1.01452083   -1.36639583
 H                  0.43277083   -2.01847917    1.66460417
 H                  1.16077083   -1.92547917    0.00660417
 H                 -1.53822917   -0.74547917    0.94460417
 H                 -1.15522917   -1.64047917   -0.60039583
 H                  1.52777083    0.77052083   -0.93939583
 H                  0.76377083    1.94052083    0.23560417
 H                 -1.09822917    0.68252083   -2.40439583
 H                 -2.38722917    0.77152083   -1.12939583
 H                 -1.19522917    2.11752083   -1.29839583
 H                  2.37177083   -0.13847917    1.17760417
 H                  0.86577083    0.36652083    2.05260417

