$RunGaus
%mem=16000Mb
%nproc=8
# opt  b3lyp/6-31+g(d,p)   

propane-a

0 1
 C                  0.51715385   -1.18884615    0.00000000
 C                  0.48715385    0.34415385    0.00000000
 C                 -0.94884615    0.88415385    0.00000000
 H                  1.56515385   -1.56884615    0.00000000
 H                  0.00715385   -1.60084615    0.90100000
 H                  0.00715385   -1.60084615   -0.90100000
 H                  1.02815385    0.72715385    0.89900000
 H                  1.02815385    0.72715385   -0.89900000
 H                 -0.95684615    1.99915385    0.00000000
 H                 -1.50584615    0.54015385   -0.90100000
 H                 -1.50584615    0.54015385    0.90100000

