$RunGaus
%mem=16000Mb
%nproc=8
# opt  b3lyp/6-31+g(d,p)   

propane-ecl

0 1
 C                  0.52450000   -1.19365385    0.00173077
 C                  0.48250000    0.34034615   -0.00126923
 C                 -0.95250000    0.89034615   -0.00026923
 H                  1.57550000   -1.56565385    0.00073077
 H                  0.02050000   -1.60665385    0.90573077
 H                  0.01850000   -1.60965385   -0.90026923
 H                  1.03450000    0.72134615    0.89173077
 H                  1.03250000    0.71734615   -0.89726923
 H                 -1.14650000    1.52334615    0.89573077
 H                 -1.14850000    1.52034615   -0.89926923
 H                 -1.71350000    0.07734615    0.00173077

 
