$RunGaus
%mem=16000Mb
%nproc=8
# opt  b3lyp/6-31+g(d,p)   

tBu-CMe2Cl-ts

0 1
 C                  0.07263514   -0.95917568    0.19406757
 C                 -0.01336486    0.62082432    0.20906757
 C                 -1.20936486    1.17982432    1.01806757
 C                  1.24863514    1.31582432    0.77506757
 Cl                -0.21836486    1.32082432   -1.46293243
 H                 -1.24336486    2.29382432    0.99906757
 H                 -2.19136486    0.83782432    0.62006757
 H                 -1.14436486    0.90282432    2.09406757
 H                  1.15563514    2.42682432    0.76206757
 H                  1.42663514    1.04582432    1.84006757
 H                  2.16563514    1.07882432    0.18906757
 C                  1.40363514   -1.49717568    0.77906757
 C                 -1.05136486   -1.63317568    1.02206757
 C                 -0.03436486   -1.57717568   -1.22493243
 H                  1.43963514   -2.61117568    0.76806757
 H                  2.28763514   -1.16117568    0.19206757
 H                  1.54263514   -1.20217568    1.84306757
 H                 -0.96736486   -2.74417568    1.00706757
 H                 -1.01136486   -1.34317568    2.09606757
 H                 -2.06436486   -1.40317568    0.62306757
 H                  0.03063514   -2.68917568   -1.19893243
 H                 -1.00836486   -1.34217568   -1.71093243
 H                  0.79563514   -1.24217568   -1.88893243

 
