$RunGaus
%mem=16000Mb
%nproc=8
# opt  b3lyp/6-31+g(d,p)   

Trimethylphosphate-ecl

0 1
 P                 -0.01390541    0.18981081    0.05464865
 O                 -0.00290541    1.79081081    0.09664865
 O                  1.57809459   -0.37218919    0.01964865
 O                 -0.83390541   -0.36518919    1.42264865
 O                 -0.82290541   -0.33318919   -1.33135135
 C                  0.00009459   -1.18918919    2.24964865
 C                  2.26409459    0.09681081   -1.15235135
 C                 -2.18190541    0.13181081   -1.34235135
 H                 -0.58290541   -1.51518919    3.11264865
 H                  0.33309459   -2.07218919    1.70364865
 H                  0.86409459   -0.62618919    2.60764865
 H                  3.28409459   -0.28918919   -1.13135135
 H                  1.77509459   -0.26518919   -2.05835135
 H                  2.30609459    1.18681081   -1.16735135
 H                 -2.66190541   -0.22818919   -2.25335135
 H                 -2.73190541   -0.25818919   -0.48435135
 H                 -2.21790541    1.22181081   -1.33935135

 
