# opt dreiding

2-methylpiperidine-ax

0 1
 C                 -1.00094643   -0.54312500    0.32891071
 N                 -0.97994643    0.90787500    0.36191071
 C                  0.34805357    1.48087500    0.29091071
 C                 -0.25894643   -1.08012500   -0.90708929
 C                  1.10305357    1.02087500   -0.96308929
 C                  1.16005357   -0.51012500   -1.02108929
 H                 -1.42894643    1.22487500    1.22191071
 H                 -2.07494643   -0.84312500    0.24191071
 H                  0.92005357    1.22187500    1.21091071
 H                  0.24805357    2.59187500    0.28291071
 H                 -0.82994643   -0.79512500   -1.82308929
 H                 -0.22594643   -2.19612500   -0.88308929
 H                  2.13605357    1.44487500   -0.96908929
 H                  0.58105357    1.40687500   -1.87108929
 H                  1.79805357   -0.89612500   -0.19108929
 H                  1.63605357   -0.84312500   -1.97508929
 C                 -0.48794643   -1.15312500    1.64391071
 H                  0.59605357   -0.97112500    1.81391071
 H                 -1.03794643   -0.73512500    2.51891071
 H                 -0.63794643   -2.25712500    1.65391071

 1 2 1.0 4 1.0 8 1.0 17 1.0
 2 3 1.0 7 1.0
 3 5 1.0 9 1.0 10 1.0
 4 6 1.0 11 1.0 12 1.0
 5 6 1.0 13 1.0 14 1.0
 6 15 1.0 16 1.0
 7
 8
 9
 10
 11
 12
 13
 14
 15
 16
 17 18 1.0 19 1.0 20 1.0
 18
 19
 20

