# opt dreiding

2-propylamine-g

0 1
 C                  0.27582353   -1.40597059   -0.30111765
 C                  0.22282353    0.12802941   -0.30511765
 C                 -1.22617647    0.63702941   -0.32411765
 N                  0.89582353    0.64102941    0.86488235
 H                  1.32882353   -1.77097059   -0.29211765
 H                 -0.23717647   -1.82397059    0.59588235
 H                 -0.22017647   -1.82697059   -1.20611765
 H                  0.75682353    0.51402941   -1.20811765
 H                 -1.26017647    1.75102941   -0.33311765
 H                 -1.76617647    0.27502941   -1.22811765
 H                 -1.78617647    0.28702941    0.57288235
 H                  0.82282353    1.65702941    0.90988235
 H                  0.45582353    0.29602941    1.71688235

 1 2 1.0 5 1.0 6 1.0 7 1.0
 2 3 1.0 4 1.0 8 1.0
 3 9 1.0 10 1.0 11 1.0
 4 12 1.0 13 1.0
 5
 6
 7
 8
 9
 10
 11
 12
 13

