# opt dreiding

2-SnBu3-N-Me-piperidine-eq,eq

0 1
 C                  2.04903431    1.29916176   -0.58729902
 N                  1.67803431    2.63816176   -1.06229902
 C                  2.84203431    3.37316176   -1.55629902
 C                  2.80803431    0.51216176   -1.67929902
 C                  3.58503431    2.64416176   -2.68129902
 C                  4.03903431    1.27116176   -2.18329902
 C                  1.02403431    3.45616176   -0.04229902
 H                  2.72903431    1.40016176    0.29170098
 H                  3.55303431    3.57216176   -0.71829902
 H                  2.52003431    4.36416176   -1.95829902
 H                  2.13703431    0.31416176   -2.54929902
 H                  3.15503431   -0.47583824   -1.29129902
 H                  4.46803431    3.24016176   -3.01629902
 H                  2.91003431    2.52516176   -3.56329902
 H                  4.78003431    1.39016176   -1.35729902
 H                  4.54103431    0.70616176   -3.00529902
 Sn                 0.33103431    0.09016176    0.04270098
 C                 -1.22496569    0.30416176   -1.43829902
 C                 -2.61496569   -0.09583824   -0.91729902
 C                 -3.68796569    0.03116176   -2.01129902
 C                 -5.07796569   -0.36283824   -1.49229902
 C                 -0.38796569    0.77416176    1.96370098
 C                 -1.21896569   -0.28083824    2.71270098
 C                 -1.75996569    0.26316176    4.04570098
 C                 -2.58296569   -0.79083824    4.79770098
 C                  0.91503431   -1.98483824    0.19570098
 C                 -0.27796569   -2.95683824    0.18970098
 C                  0.17803431   -4.41483824    0.36870098
 C                 -1.00996569   -5.38683824    0.35470098
 H                  1.63203431    3.51716176    0.89070098
 H                  0.84703431    4.49216176   -0.41329902
 H                  0.00903431    3.07716176    0.20370098
 H                 -1.25196569    1.36516176   -1.77729902
 H                 -0.96096569   -0.31783824   -2.32429902
 H                 -2.60596569   -1.14983824   -0.54929902
 H                 -2.90196569    0.55816176   -0.05929902
 H                 -3.71996569    1.08216176   -2.38529902
 H                 -3.42096569   -0.62283824   -2.87529902
 H                 -5.84596569   -0.26683824   -2.29429902
 H                 -5.08996569   -1.41883824   -1.13729902
 H                 -5.38996569    0.28916176   -0.64429902
 H                  0.48603431    1.06916176    2.58970098
 H                 -1.00896569    1.68716176    1.81470098
 H                 -2.08296569   -0.60983824    2.08770098
 H                 -0.58896569   -1.17783824    2.92570098
 H                 -0.90896569    0.59316176    4.68870098
 H                 -2.39796569    1.15916176    3.85370098
 H                 -2.96896569   -0.38383824    5.76070098
 H                 -3.45896569   -1.12183824    4.19370098
 H                 -1.96796569   -1.68983824    5.03170098
 H                  1.58703431   -2.23883824   -0.65529902
 H                  1.50503431   -2.11983824    1.13170098
 H                 -0.99196569   -2.70683824    1.00970098
 H                 -0.82896569   -2.87183824   -0.77629902
 H                  0.88703431   -4.68883824   -0.44929902
 H                  0.72703431   -4.51983824    1.33470098
 H                 -0.66696569   -6.43883824    0.48470098
 H                 -1.72496569   -5.15883824    1.17870098
 H                 -1.56696569   -5.32783824   -0.60829902

 1 2 1.0 4 1.0 8 1.0 17 1.0
 2 3 1.0 7 1.0
 3 5 1.0 9 1.0 10 1.0
 4 6 1.0 11 1.0 12 1.0
 5 6 1.0 13 1.0 14 1.0
 6 15 1.0 16 1.0
 7 30 1.0 31 1.0 32 1.0
 8
 9
 10
 11
 12
 13
 14
 15
 16
 17 18 1.0 22 1.0 26 1.0
 18 19 1.0 33 1.0 34 1.0
 19 20 1.0 35 1.0 36 1.0
 20 21 1.0 37 1.0 38 1.0
 21 39 1.0 40 1.0 41 1.0
 22 23 1.0 42 1.0 43 1.0
 23 24 1.0 44 1.0 45 1.0
 24 25 1.0 46 1.0 47 1.0
 25 48 1.0 49 1.0 50 1.0
 26 27 1.0 51 1.0 52 1.0
 27 28 1.0 53 1.0 54 1.0
 28 29 1.0 55 1.0 56 1.0
 29 57 1.0 58 1.0 59 1.0
 30
 31
 32
 33
 34
 35
 36
 37
 38
 39
 40
 41
 42
 43
 44
 45
 46
 47
 48
 49
 50
 51
 52
 53
 54
 55
 56
 57
 58
 59

