# opt dreiding

2-SnBu3-N-Me-piperidine-ax,ax

0 1
 C                 -1.35969118    0.68103922   -2.07436275
 N                 -1.54569118    2.13103922   -2.05236275
 C                 -0.35369118    2.85303922   -2.48636275
 C                 -0.76669118    0.14403922   -3.39136275
 C                  0.19030882    2.41703922   -3.85436275
 C                  0.47830882    0.91303922   -3.84836275
 C                 -2.71369118    2.53203922   -2.82536275
 H                 -2.36169118    0.20103922   -1.96036275
 H                  0.45230882    2.72303922   -1.72836275
 H                 -0.55769118    3.95103922   -2.49336275
 H                 -1.53669118    0.21303922   -4.19636275
 H                 -0.52669118   -0.94396078   -3.31136275
 H                  1.12630882    2.97903922   -4.08836275
 H                 -0.53669118    2.66403922   -4.66336275
 H                  1.33030882    0.69703922   -3.16536275
 H                  0.79130882    0.57603922   -4.86636275
 Sn                -0.35069118   -0.03496078   -0.27936275
 C                  1.62130882    0.81503922   -0.02036275
 C                  2.50730882    0.00803922    0.94263725
 C                  3.87430882    0.68003922    1.15363725
 C                  4.76430882   -0.12696078    2.10763725
 C                 -0.20569118   -2.18496078   -0.41936275
 C                 -0.02169118   -2.87496078    0.94263725
 C                  0.13830882   -4.39596078    0.79063725
 C                  0.31530882   -5.08796078    2.14863725
 C                 -1.58569118    0.50303922    1.40863725
 C                 -0.84769118    0.42203922    2.75563725
 C                 -1.77869118    0.75503922    3.93263725
 C                 -1.04269118    0.68203922    5.27763725
 H                 -2.63969118    2.24303922   -3.89736275
 H                 -3.63769118    2.07103922   -2.40436275
 H                 -2.86369118    3.63503922   -2.76836275
 H                  2.13130882    0.87803922   -1.00736275
 H                  1.51130882    1.85603922    0.36263725
 H                  2.01030882   -0.10096078    1.93563725
 H                  2.67530882   -1.01696078    0.53363725
 H                  4.39330882    0.79003922    0.17163725
 H                  3.72730882    1.70603922    1.56863725
 H                  5.75130882    0.37003922    2.25263725
 H                  4.28830882   -0.23196078    3.10963725
 H                  4.95530882   -1.15096078    1.71063725
 H                 -1.12869118   -2.57596078   -0.90536275
 H                  0.64930882   -2.43996078   -1.08736275
 H                  0.87930882   -2.47396078    1.46563725
 H                 -0.90769118   -2.67396078    1.59263725
 H                 -0.75769118   -4.81796078    0.27663725
 H                  1.02430882   -4.61696078    0.14863725
 H                  0.43030882   -6.18996078    2.02463725
 H                  1.22130882   -4.70996078    2.67763725
 H                 -0.56569118   -4.91196078    2.80763725
 H                 -1.96269118    1.54103922    1.25863725
 H                 -2.47369118   -0.16896078    1.42663725
 H                 -0.43069118   -0.60096078    2.91163725
 H                  0.00630882    1.14103922    2.76363725
 H                 -2.20069118    1.78003922    3.79963725
 H                 -2.63669118    0.04103922    3.94563725
 H                 -1.72869118    0.92603922    6.12263725
 H                 -0.63369118   -0.33896078    5.45663725
 H                 -0.19469118    1.40403922    5.31163725

 1 2 1.0 4 1.0 8 1.0 17 1.0
 2 3 1.0 7 1.0
 3 5 1.0 9 1.0 10 1.0
 4 6 1.0 11 1.0 12 1.0
 5 6 1.0 13 1.0 14 1.0
 6 15 1.0 16 1.0
 7 30 1.0 31 1.0 32 1.0
 8
 9
 10
 11
 12
 13
 14
 15
 16
 17 18 1.0 22 1.0 26 1.0
 18 19 1.0 33 1.0 34 1.0
 19 20 1.0 35 1.0 36 1.0
 20 21 1.0 37 1.0 38 1.0
 21 39 1.0 40 1.0 41 1.0
 22 23 1.0 42 1.0 43 1.0
 23 24 1.0 44 1.0 45 1.0
 24 25 1.0 46 1.0 47 1.0
 25 48 1.0 49 1.0 50 1.0
 26 27 1.0 51 1.0 52 1.0
 27 28 1.0 53 1.0 54 1.0
 28 29 1.0 55 1.0 56 1.0
 29 57 1.0 58 1.0 59 1.0
 30
 31
 32
 33
 34
 35
 36
 37
 38
 39
 40
 41
 42
 43
 44
 45
 46
 47
 48
 49
 50
 51
 52
 53
 54
 55
 56
 57
 58
 59

