# opt dreiding

3-methylpiperidine-ax

0 1
 C                 -0.79587500   -0.95450000   -0.63373214
 N                 -0.04487500   -1.46150000    0.49626786
 C                  1.32912500   -1.00450000    0.49426786
 C                 -0.82087500    0.58250000   -0.67773214
 C                  1.42612500    0.52650000    0.49626786
 C                  0.62112500    1.11950000   -0.66773214
 H                 -0.05687500   -2.48150000    0.47326786
 H                 -1.83487500   -1.35450000   -0.57573214
 H                  1.84912500   -1.42350000   -0.39973214
 H                  1.84112500   -1.42150000    1.39326786
 H                 -1.30487500    0.90250000   -1.63473214
 H                  2.49512500    0.84150000    0.42126786
 H                  1.04312500    0.92350000    1.46526786
 H                  1.12012500    0.83750000   -1.62573214
 H                  0.62412500    2.23350000   -0.61773214
 C                 -1.66487500    1.16150000    0.47026786
 H                 -0.34887500   -1.36050000   -1.57273214
 H                 -1.66787500    2.27550000    0.44526786
 H                 -2.72387500    0.82550000    0.39526786
 H                 -1.28987500    0.84650000    1.46926786

 1 2 1.0 4 1.0 8 1.0 17 1.0
 2 3 1.0 7 1.0
 3 5 1.0 9 1.0 10 1.0
 4 6 1.0 11 1.0 16 1.0
 5 6 1.0 12 1.0 13 1.0
 6 14 1.0 15 1.0
 7
 8
 9
 10
 11
 12
 13
 14
 15
 16 18 1.0 19 1.0 20 1.0
 17
 18
 19
 20

