# opt dreiding

3-methylpiperidine-eq

0 1
 C                 -0.80803571   -0.94383929   -0.25828571
 N                 -0.05103571   -1.45983929    0.86271429
 C                  1.31996429   -0.99483929    0.86571429
 C                 -0.82203571    0.59316071   -0.29028571
 C                  1.40096429    0.53816071    0.88171429
 C                  0.61996429    1.12616071   -0.30028571
 H                 -0.05603571   -2.47983929    0.82771429
 H                 -1.85003571   -1.33383929   -0.18228571
 H                  1.84496429   -1.39983929   -0.03228571
 H                  1.83396429   -1.41483929    1.76271429
 H                 -1.32403571    0.95716071    0.64071429
 H                  2.46596429    0.86816071    0.84171429
 H                  0.97196429    0.92016071    1.83871429
 H                  1.11996429    0.83616071   -1.25528571
 H                  0.62396429    2.24116071   -0.24628571
 C                 -1.61503571    1.11616071   -1.49728571
 H                 -0.37603571   -1.34783929   -1.20428571
 H                 -2.66803571    0.75216071   -1.47528571
 H                 -1.64503571    2.23016071   -1.50628571
 H                 -1.15903571    0.78016071   -2.45628571

 1 2 1.0 4 1.0 8 1.0 17 1.0
 2 3 1.0 7 1.0
 3 5 1.0 9 1.0 10 1.0
 4 6 1.0 11 1.0 16 1.0
 5 6 1.0 12 1.0 13 1.0
 6 14 1.0 15 1.0
 7
 8
 9
 10
 11
 12
 13
 14
 15
 16 18 1.0 19 1.0 20 1.0
 17
 18
 19
 20

