# opt dreiding

3-OH-hexahydropyrimidine-HB

0 1
 C                 -0.99682143   -0.59382143   -0.35450000
 C                 -0.94782143    0.93817857   -0.40050000
 C                 -0.24782143   -1.10382143    0.88550000
 N                  0.42517857    1.38617857   -0.32350000
 N                  1.09317857   -0.56182143    0.91750000
 C                  1.08417857    0.88517857    0.86450000
 O                 -0.37982143   -1.10182143   -1.52050000
 H                  0.21917857   -0.44582143   -1.83250000
 H                  1.61517857   -0.92282143    0.11750000
 H                  0.45117857    2.40617857   -0.32150000
 H                 -2.05382143   -0.96082143   -0.34750000
 H                 -1.52982143    1.37517857    0.44550000
 H                 -1.40082143    1.31617857   -1.34650000
 H                 -0.18682143   -2.21782143    0.87450000
 H                 -0.79282143   -0.80882143    1.81350000
 H                  2.14017857    1.24317857    0.85550000
 H                  0.59817857    1.30517857    1.77750000

 1 2 1.0 3 1.0 7 1.0 11 1.0
 2 4 1.0 12 1.0 13 1.0
 3 5 1.0 14 1.0 15 1.0
 4 6 1.0 10 1.0
 5 6 1.0 9 1.0
 6 16 1.0 17 1.0
 7 8 1.0
 8
 9
 10
 11
 12
 13
 14
 15
 16
 17

