# opt dreiding

3-OH-hexahydropyrimidine

0 1
 C                 -0.99998214   -0.51871429   -0.35882143
 C                 -0.92698214    1.01328571   -0.36782143
 C                 -0.25998214   -1.06871429    0.86817857
 N                  0.45201786    1.44428571   -0.27582143
 N                  1.09001786   -0.54771429    0.90717857
 C                  1.10001786    0.90128571    0.90017857
 O                 -0.38098214   -1.01371429   -1.52682143
 H                 -0.60198214   -1.92571429   -1.59982143
 H                  1.60001786   -0.88571429    0.09017857
 H                  0.95101786    1.13028571   -1.10882143
 H                 -2.06298214   -0.86771429   -0.37282143
 H                 -1.51098214    1.43428571    0.48517857
 H                 -1.36898214    1.41828571   -1.30782143
 H                 -0.21498214   -2.18271429    0.82617857
 H                 -0.79898214   -0.78971429    1.80417857
 H                  2.16201786    1.24128571    0.90117857
 H                  0.62101786    1.29828571    1.82717857

 1 2 1.0 3 1.0 7 1.0 11 1.0
 2 4 1.0 12 1.0 13 1.0
 3 5 1.0 14 1.0 15 1.0
 4 6 1.0 10 1.0
 5 6 1.0 9 1.0
 6 16 1.0 17 1.0
 7 8 1.0
 8
 9
 10
 11
 12
 13
 14
 15
 16
 17

