# opt dreiding

3b-aminotropane-1a

0 1
 N                 -1.03238462   -0.80483333   -0.44747436
 C                 -1.00338462    0.65216667   -0.46447436
 C                  0.38561538   -1.14083333   -0.44647436
 C                 -0.59638462    1.14316667    0.93952564
 C                  0.94861538   -0.85083333    0.96052564
 C                  0.79461538    0.63016667    1.33952564
 C                 -1.74938462   -1.37183333   -1.57747436
 N                  1.03461538    0.83016667    2.74852564
 C                  1.00561538   -0.21083333   -1.50847436
 C                  0.06161538    1.00716667   -1.52047436
 H                 -2.00538462    1.07816667   -0.71747436
 H                  0.55061538   -2.22083333   -0.68347436
 H                 -0.61838462    2.25816667    0.98052564
 H                 -1.35138462    0.77716667    1.67652564
 H                  0.39861538   -1.48083333    1.69952564
 H                  2.02261538   -1.14883333    1.01652564
 H                  1.57061538    1.22516667    0.80152564
 H                 -1.33538462   -1.06183333   -2.56247436
 H                 -1.72338462   -2.48483333   -1.52347436
 H                 -2.82138462   -1.06883333   -1.53747436
 H                  1.97561538    0.53416667    3.00252564
 H                  0.98061538    1.81916667    2.98952564
 H                  1.01961538   -0.70783333   -2.50747436
 H                  2.05961538    0.06116667   -1.26447436
 H                 -0.40538462    1.13116667   -2.52647436
 H                  0.58561538    1.96216667   -1.28447436

 1 2 1.0 3 1.0 7 1.0
 2 4 1.0 10 1.0 11 1.0
 3 5 1.0 9 1.0 12 1.0
 4 6 1.0 13 1.0 14 1.0
 5 6 1.0 15 1.0 16 1.0
 6 8 1.0 17 1.0
 7 18 1.0 19 1.0 20 1.0
 8 21 1.0 22 1.0
 9 10 1.0 23 1.0 24 1.0
 10 25 1.0 26 1.0
 11
 12
 13
 14
 15
 16
 17
 18
 19
 20
 21
 22
 23
 24
 25
 26

