# opt dreiding

3b-aminotropane-1c

0 1
 N                 -1.02488462   -0.79980769   -0.73638462
 C                 -1.00688462    0.65219231   -0.68438462
 C                  0.38411538   -1.14880769   -0.66338462
 C                 -0.54988462    1.18819231    0.68761538
 C                  1.00411538   -0.82280769    0.71061538
 C                  0.84211538    0.66319231    1.06861538
 C                 -1.89188462   -1.45880769    0.21961538
 N                  1.11011538    0.88619231    2.46961538
 C                  0.97411538   -0.24280769   -1.76638462
 C                  0.03011538    0.97819231   -1.78038462
 H                 -2.01188462    1.06819231   -0.94138462
 H                  0.53611538   -2.22980769   -0.90338462
 H                 -0.53388462    2.30419231    0.66561538
 H                 -1.29388462    0.92019231    1.47161538
 H                  0.54711538   -1.46280769    1.49961538
 H                  2.08711538   -1.08880769    0.70461538
 H                  1.60811538    1.24819231    0.50661538
 H                 -1.63388462   -1.24780769    1.28061538
 H                 -2.94588462   -1.13980769    0.05261538
 H                 -1.84688462   -2.56180769    0.06861538
 H                  2.05611538    0.59219231    2.70961538
 H                  1.06211538    1.87919231    2.69461538
 H                  0.93411538   -0.76680769   -2.75238462
 H                  2.03711538    0.03019231   -1.57338462
 H                 -0.47488462    1.05819231   -2.77238462
 H                  0.56111538    1.94119231   -1.59538462

 1 2 1.0 3 1.0 7 1.0
 2 4 1.0 10 1.0 11 1.0
 3 5 1.0 9 1.0 12 1.0
 4 6 1.0 13 1.0 14 1.0
 5 6 1.0 15 1.0 16 1.0
 6 8 1.0 17 1.0
 7 18 1.0 19 1.0 20 1.0
 8 21 1.0 22 1.0
 9 10 1.0 23 1.0 24 1.0
 10 25 1.0 26 1.0
 11
 12
 13
 14
 15
 16
 17
 18
 19
 20
 21
 22
 23
 24
 25
 26

