# opt dreiding

4-methylpiperidine-eq

0 1
 C                 -1.35976786   -0.51267857    0.90480357
 N                 -1.32576786    0.93432143    0.92980357
 C                  0.02523214    1.45432143    0.90280357
 C                 -0.63776786   -1.08067857   -0.32419643
 C                  0.80223214    0.96432143   -0.32719643
 C                  0.81123214   -0.57167857   -0.38719643
 H                 -1.79376786    1.26532143    1.77380357
 H                 -2.42676786   -0.83967857    0.90680357
 H                 -0.89676786   -0.90367857    1.84180357
 H                  0.55123214    1.15132143    1.83880357
 H                 -0.02676786    2.56932143    0.90280357
 H                 -1.18376786   -0.76867857   -1.24619643
 H                 -0.65176786   -2.19567857   -0.29219643
 H                  1.84723214    1.35432143   -0.29619643
 H                  0.32323214    1.37132143   -1.24919643
 H                  1.36023214   -0.95667857    0.50680357
 C                  1.52923214   -1.07867857   -1.64719643
 H                  2.58423214   -0.72167857   -1.67719643
 H                  1.54923214   -2.19267857   -1.67619643
 H                  1.02223214   -0.72267857   -2.57319643

 1 2 1.0 4 1.0 8 1.0 9 1.0
 2 3 1.0 7 1.0
 3 5 1.0 10 1.0 11 1.0
 4 6 1.0 12 1.0 13 1.0
 5 6 1.0 14 1.0 15 1.0
 6 16 1.0 17 1.0
 7
 8
 9
 10
 11
 12
 13
 14
 15
 16
 17 18 1.0 19 1.0 20 1.0
 18
 19
 20

