# opt dreiding

butanediamine-H+-tTTT

1 1
 C                  0.73974510    1.17352941    1.27464706
 N                  0.70874510    2.67052941    1.24564706
 H                  1.80174510    0.83652941    1.28064706
 H                  0.23274510    0.82352941    2.20364706
 H                 -0.26525490    3.04052941    1.24464706
 H                  1.19074510    3.08752941    2.07064706
 H                  1.17674510    3.05352941    0.39564706
 C                  0.00374510    0.69752941    0.01664706
 C                 -0.03325490   -0.83647059   -0.06935294
 C                 -0.76925490   -1.32247059   -1.32635294
 N                 -0.78825490   -2.76347059   -1.38235294
 H                 -0.26325490   -0.93947059   -2.24435294
 H                 -1.82125490   -0.95347059   -1.32735294
 H                  0.15874510   -3.13947059   -1.37935294
 H                 -1.24025490   -3.15147059   -0.55535294
 H                 -1.04025490    1.09352941    0.02264706
 H                  0.51074510    1.10752941   -0.88935294
 H                  1.00974510   -1.23347059   -0.07535294
 H                 -0.54025490   -1.24747059    0.83664706

 1 2 1.0 3 1.0 4 1.0 8 1.0
 2 5 1.0 6 1.0 7 1.0
 3
 4
 5
 6
 7
 8 9 1.0 16 1.0 17 1.0
 9 10 1.0 18 1.0 19 1.0
 10 11 1.0 12 1.0 13 1.0
 11 14 1.0 15 1.0
 12
 13
 14
 15
 16
 17
 18
 19

