# opt dreiding

butanediamine-gGGG

0 1
 C                 -1.50844000   -0.47936000   -0.22570000
 N                 -1.05344000   -0.07436000   -1.53270000
 H                 -2.62344000   -0.47636000   -0.26070000
 H                 -1.18244000   -1.52636000   -0.02270000
 H                 -1.49444000   -0.63836000   -2.25870000
 H                 -1.32544000    0.88764000   -1.72970000
 C                 -1.02744000    0.47064000    0.88130000
 C                  0.42256000    0.27064000    1.35630000
 C                  1.50856000    0.49164000    0.29230000
 N                  1.76756000   -0.69936000   -0.47970000
 H                  2.47056000    0.78364000    0.77830000
 H                  1.21956000    1.31864000   -0.39570000
 H                  2.37756000   -0.49036000   -1.26870000
 H                  0.91256000   -1.07036000   -0.88770000
 H                 -1.17144000    1.52664000    0.54930000
 H                 -1.69444000    0.33164000    1.76730000
 H                  0.60356000    0.99464000    2.18930000
 H                  0.53756000   -0.74636000    1.80130000

 1 2 1.0 3 1.0 4 1.0 7 1.0
 2 5 1.0 6 1.0
 3
 4
 5
 6
 7 8 1.0 15 1.0 16 1.0
 8 9 1.0 17 1.0 18 1.0
 9 10 1.0 11 1.0 12 1.0
 10 13 1.0 14 1.0
 11
 12
 13
 14
 15
 16
 17
 18

