# opt dreiding

butanediamine-tTTTt

0 1
 C                  0.74318000    1.27740000    1.28166000
 N                  0.75218000    2.72040000    1.31566000
 H                  1.79818000    0.91640000    1.28966000
 H                  0.23818000    0.90540000    2.20366000
 H                 -0.19782000    3.08840000    1.30466000
 H                  1.20218000    3.09840000    0.48366000
 C                  0.01318000    0.76740000    0.03066000
 C                 -0.01282000   -0.76760000   -0.03134000
 C                 -0.74282000   -1.27760000   -1.28134000
 N                 -0.75282000   -2.71960000   -1.31534000
 H                 -0.23782000   -0.90660000   -2.20434000
 H                 -1.79782000   -0.91660000   -1.28934000
 H                  0.19718000   -3.08960000   -1.30434000
 H                 -1.20382000   -3.09860000   -0.48234000
 H                 -1.03282000    1.15740000    0.02866000
 H                  0.51918000    1.16840000   -0.88034000
 H                  1.03318000   -1.15760000   -0.02934000
 H                 -0.51782000   -1.16860000    0.87966000

 1 2 1.0 3 1.0 4 1.0 7 1.0
 2 5 1.0 6 1.0
 3
 4
 5
 6
 7 8 1.0 15 1.0 16 1.0
 8 9 1.0 17 1.0 18 1.0
 9 10 1.0 11 1.0 12 1.0
 10 13 1.0 14 1.0
 11
 12
 13
 14
 15
 16
 17
 18

