# opt dreiding

EtdiMeNH+-g

1 1
 C                  1.22674419   -1.42920930    0.07453488
 C                  1.13574419    0.11679070   -0.00946512
 N                 -0.24525581    0.68479070   -0.03646512
 C                 -1.01725581    0.28179070   -1.24246512
 H                  2.27774419   -1.72620930    0.08853488
 H                  0.75174419   -1.79120930    0.98653488
 H                  0.74774419   -1.88820930   -0.79046512
 H                  1.67074419    0.53379070    0.84953488
 H                  1.66674419    0.43779070   -0.91046512
 C                 -1.01025581    0.41679070    1.20953488
 H                 -1.95025581    0.84879070   -1.29246512
 H                 -0.44125581    0.49079070   -2.14646512
 H                 -1.25925581   -0.78220930   -1.21446512
 H                 -0.13125581    1.70279070   -0.09246512
 H                 -0.43025581    0.72279070    2.08253488
 H                 -1.25225581   -0.64420930    1.29953488
 H                 -1.94325581    0.98479070    1.20253488

 1 2 1.0 5 1.0 6 1.0 7 1.0
 2 3 1.0 8 1.0 9 1.0
 3 4 1.0 10 1.0 14 1.0
 4 11 1.0 12 1.0 13 1.0
 5
 6
 7
 8
 9
 10 15 1.0 16 1.0 17 1.0
 11
 12
 13
 14
 15
 16
 17

