# opt dreiding

EtdiMeNH+-a

1 1
 C                  1.06188372   -1.77206977    0.32797674
 C                  0.98788372   -0.23106977    0.17197674
 N                 -0.40211628    0.31193023    0.20297674
 C                 -0.37611628    1.79693023    0.30697674
 H                  2.10588372   -2.07606977    0.41497674
 H                  0.52788372   -2.08206977    1.22797674
 H                  0.62488372   -2.26506977   -0.54002326
 H                  1.55888372    0.20393023    0.99797674
 H                  1.47888372    0.05193023   -0.76302326
 C                 -1.21211628   -0.10506977   -0.97402326
 H                 -1.39311628    2.18793023    0.37497674
 H                  0.16688372    2.10293023    1.20397674
 H                  0.11288372    2.23493023   -0.56602326
 H                 -0.86611628   -0.04106977    1.04497674
 H                 -1.33911628   -1.18806977   -0.98602326
 H                 -0.72811628    0.20593023   -1.90202326
 H                 -2.20411628    0.34893023   -0.92602326

 1 2 1.0 5 1.0 6 1.0 7 1.0
 2 3 1.0 8 1.0 9 1.0
 3 4 1.0 10 1.0 14 1.0
 4 11 1.0 12 1.0 13 1.0
 5
 6
 7
 8
 9
 10 15 1.0 16 1.0 17 1.0
 11
 12
 13
 14
 15
 16
 17

