# opt dreiding

ethanediamine-gGg'

0 1
 C                 -0.59858824   -0.75238235    0.07311765
 C                 -0.51158824    0.77061765    0.23411765
 N                  0.48941176    1.32861765   -0.64088235
 N                  0.62141176   -1.38438235    0.50911765
 H                 -1.44658824   -1.16438235    0.67011765
 H                 -0.76958824   -1.01638235   -0.99688235
 H                 -1.49058824    1.23961765   -0.02188235
 H                 -0.26458824    1.04061765    1.28811765
 H                  0.25141176    1.16061765   -1.61788235
 H                  0.64141176   -2.36638235    0.23511765
 H                  0.53441176    2.34161765   -0.53888235
 H                  1.42941176   -0.95438235    0.06111765

 1 2 1.0 4 1.0 5 1.0 6 1.0
 2 3 1.0 7 1.0 8 1.0
 3 9 1.0 11 1.0
 4 10 1.0 12 1.0
 5
 6
 7
 8
 9
 10
 11
 12

