# opt dreiding

ethanediamineH+-Tg

1 1
 C                 -0.17725714   -0.73131429   -0.15408571
 C                  0.03774286    0.76968571    0.05691429
 N                 -1.16825714    1.50468571   -0.23408571
 N                  1.12174286   -1.39631429    0.18091429
 H                 -0.97025714   -1.13031429    0.51991429
 H                 -0.43825714   -0.96231429   -1.21308571
 H                  0.32074286    0.97668571    1.11591429
 H                  0.85374286    1.14968571   -0.60208571
 H                 -1.93725714    1.18968571    0.35691429
 H                  1.07274286   -2.43131429    0.06491429
 H                 -1.04925714    2.49468571   -0.02608571
 H                  1.41074286   -1.21531429    1.16591429
 H                  1.89974286   -1.06031429   -0.42708571

 1 2 1.0 4 1.0 5 1.0 6 1.0
 2 3 1.0 7 1.0 8 1.0
 3 9 1.0 11 1.0
 4 10 1.0 12 1.0 13 1.0
 5
 6
 7
 8
 9
 10
 11
 12
 13

