# opt dreiding

ethanediamine-tTt

0 1
 C                  0.00697059   -0.75967647    0.10052941
 C                 -0.00702941    0.76032353   -0.10047059
 N                 -1.33602941    1.29132353    0.07252941
 N                  1.33597059   -1.29167647   -0.07247059
 H                 -0.35502941   -1.02567647    1.12152941
 H                 -0.66302941   -1.25167647   -0.64347059
 H                  0.66297059    1.25132353    0.64352941
 H                  0.35597059    1.02532353   -1.12147059
 H                 -1.69902941    1.06532353    0.99752941
 H                 -1.32802941    2.30932353    0.01952941
 H                  1.32797059   -2.30967647   -0.02047059
 H                  1.69897059   -1.06567647   -0.99747059

 1 2 1.0 4 1.0 5 1.0 6 1.0
 2 3 1.0 7 1.0 8 1.0
 3 9 1.0 10 1.0
 4 11 1.0 12 1.0
 5
 6
 7
 8
 9
 10
 11
 12

