# opt dreiding

ethylamine-a

0 1
 N                  0.55350000   -1.13784615    0.00011538
 C                  0.53050000    0.30415385    0.00011538
 C                 -0.91050000    0.82315385    0.00011538
 H                  1.07250000    0.66915385    0.90411538
 H                  1.07250000    0.66915385   -0.90488462
 H                 -0.93350000    1.93815385    0.00011538
 H                 -1.46350000    0.47015385   -0.90188462
 H                  0.06050000   -1.50784615    0.81111538
 H                 -1.46350000    0.47015385    0.90111538
 H                  0.06050000   -1.50784615   -0.81188462

 1 2 1.0 8 1.0 10 1.0
 2 3 1.0 4 1.0 5 1.0
 3 6 1.0 7 1.0 9 1.0
 4
 5
 6
 7
 8
 9
 10

