# opt dreiding

ethylenediamine-a,g+,g+

0 1
 C                  0.00344118   -0.76641176    0.05920588
 C                 -0.00355882    0.76658824    0.05820588
 N                  1.35144118   -1.27841176    0.04620588
 N                 -1.35155882    1.27858824    0.04620588
 H                 -0.51955882   -1.16041176    0.96220588
 H                 -0.52255882   -1.15441176   -0.84379412
 H                  0.52044118    1.16158824    0.96020588
 H                  0.52244118    1.15358824   -0.84579412
 H                  1.35244118   -2.29641176   -0.01479412
 H                  1.85744118   -0.95241176   -0.77679412
 H                 -1.35155882    2.29558824   -0.01679412
 H                 -1.85755882    0.95058824   -0.77579412

 1 2 1.0 3 1.0 5 1.0 6 1.0
 2 4 1.0 7 1.0 8 1.0
 3 9 1.0 10 1.0
 4 11 1.0 12 1.0
 5
 6
 7
 8
 9
 10
 11
 12

