# opt dreiding

ethylenediamine-g+,g+,g+

0 1
 C                 -0.53055882   -0.76888235    0.28776471
 C                 -0.52455882    0.76411765    0.31076471
 N                  0.80844118   -1.30288235    0.30576471
 N                  0.14444118    1.30711765   -0.84623529
 H                 -1.07955882   -1.16388235    1.17576471
 H                 -1.04455882   -1.14288235   -0.62823529
 H                 -1.57055882    1.15311765    0.32676471
 H                 -0.00455882    1.13811765    1.22276471
 H                  0.79144118   -2.32188235    0.30976471
 H                  1.31244118   -1.04188235   -0.54123529
 H                  0.12544118    2.32611765   -0.82923529
 H                  1.13044118    1.05211765   -0.84423529

 1 2 1.0 3 1.0 5 1.0 6 1.0
 2 4 1.0 7 1.0 8 1.0
 3 9 1.0 10 1.0
 4 11 1.0 12 1.0
 5
 6
 7
 8
 9
 10
 11
 12

