# opt dreiding

EtMeNH2+-a

1 1
 C                  0.72628571   -1.80742857    0.00331429
 C                  0.71428571   -0.25942857    0.01131429
 N                 -0.66871429    0.27657143   -0.01068571
 C                 -0.69871429    1.75657143   -0.00268571
 H                  1.75728571   -2.16442857    0.01931429
 H                  0.20428571   -2.18942857    0.88131429
 H                  0.23628571   -2.17942857   -0.89768571
 H                  1.22928571    0.08857143    0.91131429
 H                  1.26228571    0.09857143   -0.86468571
 H                 -1.14771429   -0.05542857   -0.85068571
 H                 -1.73471429    2.10057143   -0.01968571
 H                 -0.21571429    2.14057143    0.89831429
 H                 -0.18371429    2.15057143   -0.88068571
 H                 -1.17771429   -0.06442857    0.80631429

 1 2 1.0 5 1.0 6 1.0 7 1.0
 2 3 1.0 8 1.0 9 1.0
 3 4 1.0 10 1.0 14 1.0
 4 11 1.0 12 1.0 13 1.0
 5
 6
 7
 8
 9
 10
 11
 12
 13
 14

