# opt dreiding

EtMeNH2+-g

1 1
 C                  0.98294286   -1.33191429   -0.37722857
 C                  0.89994286    0.21008571   -0.25122857
 N                 -0.48805714    0.73708571   -0.29422857
 C                 -1.30205714    0.40008571    0.89577143
 H                  2.02994286   -1.63391429   -0.43422857
 H                  0.52694286   -1.80891429    0.49177143
 H                  0.46994286   -1.66091429   -1.28122857
 H                  1.38594286    0.52108571    0.67677143
 H                  1.45794286    0.64608571   -1.08622857
 H                 -0.43805714    1.75608571   -0.36522857
 H                 -2.27205714    0.89608571    0.82277143
 H                 -1.46705714   -0.67591429    0.95777143
 H                 -0.80305714    0.74108571    1.80577143
 H                 -0.95905714    0.39008571   -1.13222857

 1 2 1.0 5 1.0 6 1.0 7 1.0
 2 3 1.0 8 1.0 9 1.0
 3 4 1.0 10 1.0 14 1.0
 4 11 1.0 12 1.0 13 1.0
 5
 6
 7
 8
 9
 10
 11
 12
 13
 14

