# opt dreiding

formamidine-t

0 1
 C                 -0.37679167   -0.14062500    0.00000000
 N                 -0.39879167    1.14337500    0.00000000
 N                  0.76520833   -0.84362500    0.00000000
 H                 -1.29479167   -0.74862500    0.00000000
 H                 -1.26779167    1.62837500    0.00000000
 H                  0.64520833   -1.85362500    0.00000000
 H                  1.61320833   -0.28062500    0.00000000

 1 2 2.0 3 1.5 4 1.0
 2 5 1.0
 3 6 1.0 7 1.0
 4
 5
 6
 7

