# opt dreiding

formamidine-cis

0 1
 C                 -0.44562500   -0.14808333    0.00850000
 N                 -0.48862500    1.13591667   -0.01250000
 N                  0.70637500   -0.83508333    0.00450000
 H                 -1.35362500   -0.77208333    0.03250000
 H                  0.35537500    1.66191667   -0.03350000
 H                  0.60137500   -1.84708333    0.02350000
 H                  1.54637500   -0.26008333   -0.01750000

 1 2 2.0 3 1.5 4 1.0
 2 5 1.0
 3 6 1.0 7 1.0
 4
 5
 6
 7

