# opt dreiding

Gly-Gly-Z

0 1
 N                 -0.43085714    1.45724286    2.11600000
 H                 -0.83885714    1.20224286    3.04100000
 C                  0.54214286    0.42824286    1.63200000
 H                  1.35114286    0.34824286    2.39400000
 H                  0.04314286   -0.56475714    1.56500000
 C                  1.13314286    0.84624286    0.29600000
 O                  2.25014286    1.30224286    0.24500000
 H                 -1.23085714    1.58424286    1.45900000
 H                  0.01514286    2.39224286    2.23100000
 N                  0.39914286    0.71624286   -0.86600000
 H                  0.89214286    1.01424286   -1.71200000
 C                 -0.91985714    0.13124286   -0.94600000
 H                 -1.55885714    0.42824286   -0.08500000
 H                 -1.40185714    0.51524286   -1.87300000
 C                 -0.85485714   -1.37975714   -1.04100000
 O                 -2.03185714   -2.11875714   -1.11500000
 O                  0.22514286   -1.96975714   -1.05700000

 1 2 1.0 3 1.0 8 1.0 9 1.0
 2
 3 4 1.0 5 1.0 6 1.0
 4
 5
 6 7 2.0 10 1.5
 7
 8
 9
 10 11 1.0 12 1.0
 11
 12 13 1.0 14 1.0 15 1.0
 13
 14
 15 16 1.0 17 2.0
 16
 17

