# opt dreiding

hexahydropyrimidine-H-H

0 1
 C                 -0.32058333   -1.26116667   -0.57754167
 C                 -1.09058333   -0.69316667    0.62045833
 C                  1.10441667   -0.69516667   -0.59354167
 N                 -1.03558333    0.75383333    0.60945833
 N                  1.06741667    0.75183333   -0.55354167
 C                  0.33141667    1.23383333    0.59645833
 H                  0.62441667    1.09783333   -1.40554167
 H                 -1.52058333    1.09983333   -0.21954167
 H                 -0.84358333   -0.97516667   -1.52254167
 H                 -0.66058333   -1.07716667    1.57645833
 H                 -2.15858333   -1.01216667    0.58145833
 H                  1.63841667   -1.01516667   -1.51854167
 H                  1.68541667   -1.07916667    0.27945833
 H                  0.30841667    2.34783333    0.55445833
 H                  0.85241667    0.94483333    1.54045833
 H                 -0.29658333   -2.37716667   -0.53254167

 1 2 1.0 3 1.0 9 1.0 16 1.0
 2 4 1.0 10 1.0 11 1.0
 3 5 1.0 12 1.0 13 1.0
 4 6 1.0 8 1.0
 5 6 1.0 7 1.0
 6 14 1.0 15 1.0
 7
 8
 9
 10
 11
 12
 13
 14
 15
 16

