# opt dreiding

hexahydropyrimidine-lp-H

0 1
 C                 -0.31583333   -1.26577083   -0.60904167
 C                 -1.09483333   -0.68977083    0.57995833
 C                  1.10716667   -0.69477083   -0.62604167
 N                 -1.03383333    0.75622917    0.57395833
 N                  1.06316667    0.75222917   -0.59104167
 C                  0.33216667    1.23122917    0.56395833
 H                  0.60016667    1.09122917   -1.43404167
 H                 -1.51283333    1.11822917    1.39995833
 H                 -0.83583333   -0.98977083   -1.55804167
 H                 -0.67383333   -1.06977083    1.54095833
 H                 -2.16383333   -1.00577083    0.53795833
 H                  1.64216667   -1.01477083   -1.55104167
 H                  1.69016667   -1.07377083    0.24795833
 H                  0.31516667    2.34622917    0.53095833
 H                  0.85016667    0.93422917    1.50695833
 H                 -0.28883333   -2.38077083   -0.55504167

 1 2 1.0 3 1.0 9 1.0 16 1.0
 2 4 1.0 10 1.0 11 1.0
 3 5 1.0 12 1.0 13 1.0
 4 6 1.0 8 1.0
 5 6 1.0 7 1.0
 6 14 1.0 15 1.0
 7
 8
 9
 10
 11
 12
 13
 14
 15
 16

