# opt dreiding

isopropylamine-g

0 1
 C                  0.24794118   -1.40944118   -0.30844118
 C                  0.22594118    0.12555882   -0.30444118
 C                 -1.21205882    0.66355882   -0.32244118
 N                  0.90694118    0.61755882    0.87055882
 H                  1.29294118   -1.79544118   -0.29944118
 H                 -0.27505882   -1.82244118    0.58455882
 H                 -0.25305882   -1.81544118   -1.21744118
 H                  0.76894118    0.50655882   -1.20344118
 H                 -1.22405882    1.77755882   -0.32644118
 H                 -1.75805882    0.31755882   -1.23044118
 H                 -1.78205882    0.31955882    0.57055882
 H                  0.85294118    1.63455882    0.92055882
 H                  0.45794118    0.27655882    1.71955882

 1 2 1.0 5 1.0 6 1.0 7 1.0
 2 3 1.0 4 1.0 8 1.0
 3 9 1.0 10 1.0 11 1.0
 4 12 1.0 13 1.0
 5
 6
 7
 8
 9
 10
 11
 12
 13

