# opt dreiding

N,2-dimethylpiperidine-eq,eq

0 1
 C                 -0.52023438   -0.72121875    0.29809375
 N                 -0.49423438    0.74278125    0.31609375
 C                  0.87476562    1.25078125    0.28209375
 C                  0.20776562   -1.25921875   -0.95090625
 C                  1.64376562    0.77578125   -0.95790625
 C                  1.65176562   -0.75321875   -1.01790625
 C                 -1.19823437    1.30078125    1.46309375
 H                  0.01276562   -1.11121875    1.20009375
 H                  1.42376562    0.93678125    1.20309375
 H                  0.86376562    2.36678125    0.26909375
 H                 -0.34223438   -0.93621875   -1.86690625
 H                  0.21376562   -2.37521875   -0.94790625
 H                  2.69076563    1.16478125   -0.93890625
 H                  1.15676562    1.18378125   -1.87590625
 H                  2.23576562   -1.16221875   -0.15890625
 H                  2.14776562   -1.10421875   -1.95490625
 H                 -0.79023438    0.90778125    2.42409375
 H                 -1.12023438    2.41178125    1.47509375
 H                 -2.28923438    1.08378125    1.41109375
 C                 -1.95223437   -1.29321875    0.31509375
 H                 -1.94923437   -2.39421875    0.14509375
 H                 -2.46023437   -1.14321875    1.29509375
 H                 -2.57823438   -0.83121875   -0.48190625

 1 2 1.0 4 1.0 8 1.0 20 1.0
 2 3 1.0 7 1.0
 3 5 1.0 9 1.0 10 1.0
 4 6 1.0 11 1.0 12 1.0
 5 6 1.0 13 1.0 14 1.0
 6 15 1.0 16 1.0
 7 17 1.0 18 1.0 19 1.0
 8
 9
 10
 11
 12
 13
 14
 15
 16
 17
 18
 19
 20 21 1.0 22 1.0 23 1.0
 21
 22
 23

