# opt dreiding

N,2-dimethylpiperidine-eq,ax

0 1
 C                 -0.79087500   -0.70795312    0.15796875
 N                 -0.74687500    0.75504688    0.14496875
 C                  0.61012500    1.28104688    0.06896875
 C                 -0.08387500   -1.26795312   -1.09303125
 C                  1.35712500    0.76904688   -1.17203125
 C                  1.35812500   -0.76195312   -1.21003125
 C                 -1.46487500    1.34604688    1.26396875
 H                 -1.86387500   -1.01395312    0.07296875
 H                  1.18712500    1.02404688    0.98796875
 H                  0.57512500    2.39604688    0.01596875
 H                 -0.64887500   -0.95095312   -2.00303125
 H                 -0.09887500   -2.38395312   -1.08503125
 H                  2.40512500    1.15404688   -1.18003125
 H                  0.85612500    1.16104688   -2.08903125
 H                  1.97712500   -1.16295312   -0.37403125
 H                  1.82012500   -1.12495312   -2.16003125
 H                 -0.94387500    1.17804688    2.23396875
 H                 -1.56587500    2.44604688    1.11796875
 H                 -2.49887500    0.93504688    1.33196875
 C                 -0.25487500   -1.36795312    1.44296875
 H                 -0.87287500   -1.11695312    2.33496875
 H                 -0.28187500   -2.47895312    1.35596875
 H                  0.79712500   -1.08895312    1.67196875

 1 2 1.0 4 1.0 8 1.0 20 1.0
 2 3 1.0 7 1.0
 3 5 1.0 9 1.0 10 1.0
 4 6 1.0 11 1.0 12 1.0
 5 6 1.0 13 1.0 14 1.0
 6 15 1.0 16 1.0
 7 17 1.0 18 1.0 19 1.0
 8
 9
 10
 11
 12
 13
 14
 15
 16
 17
 18
 19
 20 21 1.0 22 1.0 23 1.0
 21
 22
 23

