# opt dreiding

N,3-dimethylpiperidine-eq,ax

0 1
 C                 -0.86507812   -0.76292188   -0.31246875
 N                 -0.90307812    0.69207812   -0.24446875
 C                 -0.23607812    1.18007812    0.95653125
 C                  0.57392188   -1.31092188   -0.32246875
 C                  1.22892188    0.72607812    1.02553125
 C                  1.32792188   -0.79992188    0.91453125
 C                 -2.27307813    1.18107812   -0.31246875
 H                 -1.38407812   -1.11092188   -1.23646875
 H                 -0.77607812    0.82407812    1.86653125
 H                 -0.26107812    2.29707813    0.97253125
 H                  0.52892188   -2.42792188   -0.26346875
 H                  1.69092187    1.06807812    1.98253125
 H                  1.80892188    1.20707813    0.20353125
 H                  0.87992188   -1.25492188    1.82953125
 H                  2.39692187   -1.12092188    0.88453125
 H                 -2.88207813    0.81507812    0.54653125
 H                 -2.29107812    2.29507812   -0.31246875
 H                 -2.75907812    0.85107812   -1.25946875
 C                  1.29792188   -0.95892188   -1.63346875
 H                 -1.41907812   -1.19792188    0.55453125
 H                  1.33792188    0.13907812   -1.81146875
 H                  2.34392187   -1.34192188   -1.63046875
 H                  0.77992188   -1.41392187   -2.50946875

 1 2 1.0 4 1.0 8 1.0 20 1.0
 2 3 1.0 7 1.0
 3 5 1.0 9 1.0 10 1.0
 4 6 1.0 11 1.0 19 1.0
 5 6 1.0 12 1.0 13 1.0
 6 14 1.0 15 1.0
 7 16 1.0 17 1.0 18 1.0
 8
 9
 10
 11
 12
 13
 14
 15
 16
 17
 18
 19 21 1.0 22 1.0 23 1.0
 20
 21
 22
 23

