# opt dreiding

N,3-dimethylpiperidine-eq,eq

0 1
 C                 -0.76410937   -0.49943750   -0.49360938
 N                 -0.81010938    0.95556250   -0.41460938
 C                 -0.13710938    1.44156250    0.78239062
 C                  0.67889062   -1.03543750   -0.49460938
 C                  1.32889062    0.98756250    0.83539062
 C                  1.41989062   -0.54043750    0.75639062
 C                 -2.18210938    1.43756250   -0.47060938
 H                 -1.26510938   -0.83443750   -1.43360938
 H                 -0.66810938    1.08256250    1.69639062
 H                 -0.16210938    2.55756250    0.80039062
 H                  1.20089062   -0.63043750   -1.39660938
 H                  1.81289063    1.35156250    1.77339062
 H                  1.88789062    1.43956250   -0.01960938
 H                  0.95989062   -0.98843750    1.66839062
 H                  2.48889062   -0.86143750    0.72939062
 H                 -2.78410937    1.06456250    0.39039062
 H                 -2.20610938    2.55156250   -0.46560938
 H                 -2.67410938    1.10856250   -1.41660938
 C                  0.70189062   -2.56943750   -0.57860938
 H                 -1.32610938   -0.94743750    0.36039062
 H                  0.18989062   -3.02943750    0.29739062
 H                  0.19089062   -2.93043750   -1.50060938
 H                  1.74789062   -2.95443750   -0.60160938

 1 2 1.0 4 1.0 8 1.0 20 1.0
 2 3 1.0 7 1.0
 3 5 1.0 9 1.0 10 1.0
 4 6 1.0 11 1.0 19 1.0
 5 6 1.0 12 1.0 13 1.0
 6 14 1.0 15 1.0
 7 16 1.0 17 1.0 18 1.0
 8
 9
 10
 11
 12
 13
 14
 15
 16
 17
 18
 19 21 1.0 22 1.0 23 1.0
 20
 21
 22
 23

