# opt dreiding

N-Ac-Gly-N-methylamide,g-g+

0 1
 C                 -0.77540000   -2.85964286   -0.98474286
 C                 -0.92440000   -1.37464286   -0.71274286
 O                 -1.08240000   -0.58764286   -1.61574286
 N                 -0.84440000   -1.00164286    0.61325714
 C                 -0.97840000    0.37735714    1.02925714
 C                  0.34660000    1.12335714    0.91225714
 O                  0.77860000    1.74535714    1.85425714
 N                  0.97660000    1.06035714   -0.31174286
 H                  0.21460000   -3.21664286   -0.61874286
 H                 -1.57940000   -3.42664286   -0.46174286
 H                 -0.84440000   -3.07964286   -2.07474286
 H                 -1.74840000    0.90535714    0.42125714
 H                 -1.32740000    0.38035714    2.08725714
 C                  2.21860000    1.75735714   -0.53874286
 H                 -0.67840000   -1.73964286    1.30125714
 H                  0.51060000    0.55235714   -1.06574286
 H                  2.61460000    1.46035714   -1.53574286
 H                  2.04660000    2.85835714   -0.53774286
 H                  2.97460000    1.49035714    0.23425714

 1 2 1.0 9 1.0 10 1.0 11 1.0
 2 3 2.0 4 1.5
 3
 4 5 1.0 15 1.0
 5 6 1.0 12 1.0 13 1.0
 6 7 2.0 8 1.5
 7
 8 14 1.0 16 1.0
 9
 10
 11
 12
 13
 14 17 1.0 18 1.0 19 1.0
 15
 16
 17
 18
 19

