# opt dreiding

N-Ac-Ala-N-Me-g--g+

0 1
 C                 -1.13578205   -2.93633333    0.65256410
 C                 -1.03678205   -1.45333333    0.34656410
 O                 -1.53478205   -0.63933333    1.08656410
 N                 -0.33278205   -1.13733333   -0.79843590
 C                 -0.11478205    0.22066667   -1.26443590
 C                  1.00021795    0.92066667   -0.48643590
 O                  1.92821795    1.42466667   -1.07543590
 N                  0.86421795    0.95866667    0.88356410
 H                 -0.11678205   -3.36733333    0.78256410
 H                 -1.64878205   -3.46533333   -0.18343590
 H                 -1.71378205   -3.11833333    1.58656410
 C                 -1.37678205    1.09366667   -1.33143590
 H                  0.25021795    0.09866667   -2.31243590
 C                  1.84521795    1.62466667    1.70456410
 H                  0.08321795   -1.92033333   -1.30843590
 H                  0.02821795    0.54066667    1.29656410
 H                  1.58821795    1.45166667    2.77356410
 H                  1.83321795    2.72066667    1.50856410
 H                  2.86321795    1.21466667    1.51556410
 H                 -2.19278205    0.57366667   -1.88443590
 H                 -1.76278205    1.36866667   -0.32443590
 H                 -1.16678205    2.05066667   -1.86343590

 1 2 1.0 9 1.0 10 1.0 11 1.0
 2 3 2.0 4 1.5
 3
 4 5 1.0 15 1.0
 5 6 1.0 12 1.0 13 1.0
 6 7 2.0 8 1.5
 7
 8 14 1.0 16 1.0
 9
 10
 11
 12 20 1.0 21 1.0 22 1.0
 13
 14 17 1.0 18 1.0 19 1.0
 15
 16
 17
 18
 19
 20
 21
 22

