# opt dreiding

N-Ac-Ala-N-Me-g+-g-

0 1
 C                 -0.24514103   -3.18615385    0.33060256
 C                  0.17985897   -1.86315385   -0.27939744
 O                  1.32285897   -1.67115385   -0.61839744
 N                 -0.81414103   -0.91115385   -0.38239744
 C                 -0.56414103    0.41184615   -0.92739744
 C                 -0.05014103    1.36184615    0.15460256
 O                 -0.56214103    2.44284615    0.32860256
 N                  1.02685897    0.90984615    0.88660256
 H                 -1.04914103   -3.65015385   -0.28439744
 H                 -0.62814103   -3.02415385    1.36360256
 H                  0.60885897   -3.89915385    0.38260256
 C                 -1.82414103    0.92184615   -1.64339744
 H                  0.24785897    0.35484615   -1.69139744
 C                  1.61585897    1.72884615    1.91660256
 H                 -1.73314103   -1.14915385   -0.00139744
 H                  1.42885897    0.00284615    0.63660256
 H                  0.84885897    2.04184615    2.66160256
 H                  2.09985897    2.62584615    1.46760256
 H                  2.39385897    1.13084615    2.44260256
 H                 -2.67614103    1.01884615   -0.93139744
 H                 -2.13614103    0.21684615   -2.44839744
 H                 -1.65314103    1.91584615   -2.11839744

 1 2 1.0 9 1.0 10 1.0 11 1.0
 2 3 2.0 4 1.5
 3
 4 5 1.0 15 1.0
 5 6 1.0 12 1.0 13 1.0
 6 7 2.0 8 1.5
 7
 8 14 1.0 16 1.0
 9
 10
 11
 12 20 1.0 21 1.0 22 1.0
 13
 14 17 1.0 18 1.0 19 1.0
 15
 16
 17
 18
 19
 20
 21
 22

