# opt dreiding

N-Ac-Gly-N-Me-g+-g-

0 1
 C                 -0.57425714   -3.04860000    0.33227143
 C                 -0.07725714   -1.77360000   -0.32072857
 O                  1.09374286   -1.61560000   -0.57472857
 N                 -1.04325714   -0.82060000   -0.57472857
 C                 -0.72425714    0.44440000   -1.19872857
 C                 -0.23125714    1.45940000   -0.17272857
 O                 -0.74125714    2.55340000   -0.10572857
 N                  0.81874286    1.05840000    0.62527143
 H                 -1.32725714   -3.54460000   -0.32172857
 H                 -1.04525714   -2.81660000    1.31427143
 H                  0.26174286   -3.76460000    0.50727143
 H                 -1.64925714    0.82040000   -1.69472857
 H                  0.05074286    0.31740000   -1.98972857
 C                  1.37974286    1.95140000    1.60827143
 H                 -2.00225714   -1.03660000   -0.29472857
 H                  1.21674286    0.13140000    0.46527143
 H                  0.59074286    2.32640000    2.30127143
 H                  1.88474286    2.80940000    1.10827143
 H                  2.13474286    1.39240000    2.20427143

 1 2 1.0 9 1.0 10 1.0 11 1.0
 2 3 2.0 4 1.5
 3
 4 5 1.0 15 1.0
 5 6 1.0 12 1.0 13 1.0
 6 7 2.0 8 1.5
 7
 8 14 1.0 16 1.0
 9
 10
 11
 12
 13
 14 17 1.0 18 1.0 19 1.0
 15
 16
 17
 18
 19

