# opt dreiding

N-Ac-Ala-N-Me-a-a

0 1
 C                 -1.47520513   -3.12251282    0.71393590
 C                 -0.69420513   -2.15451282   -0.15506410
 O                  0.09479487   -2.55651282   -0.97806410
 N                 -0.96120513   -0.81851282    0.06493590
 C                 -0.24520513    0.23948718   -0.62506410
 C                  0.54579487    1.08948718    0.37093590
 O                  0.36379487    0.98348718    1.56193590
 N                  1.43979487    1.98348718   -0.18106410
 H                 -2.56820513   -2.99251282    0.54393590
 H                 -1.25120513   -2.93651282    1.78893590
 H                 -1.20820513   -4.17951282    0.48093590
 C                 -1.23220513    1.10948718   -1.41606410
 H                  0.50379487   -0.18751282   -1.33306410
 C                  2.22579487    2.84848718    0.66193590
 H                 -1.62020513   -0.58851282    0.81293590
 H                  1.53779487    2.00448718   -1.19906410
 H                  2.86179487    3.49248718    0.01393590
 H                  2.88979487    2.24948718    1.32593590
 H                  1.56679487    3.50448718    1.27393590
 H                 -1.79720513    0.49648718   -2.15506410
 H                 -1.97220513    1.59048718   -0.73506410
 H                 -0.71020513    1.91648718   -1.98006410

 1 2 1.0 9 1.0 10 1.0 11 1.0
 2 3 2.0 4 1.5
 3
 4 5 1.0 15 1.0
 5 6 1.0 12 1.0 13 1.0
 6 7 2.0 8 1.5
 7
 8 14 1.0 16 1.0
 9
 10
 11
 12 20 1.0 21 1.0 22 1.0
 13
 14 17 1.0 18 1.0 19 1.0
 15
 16
 17
 18
 19
 20
 21
 22

