# opt dreiding

N-Ac-Gly-N-methylamide,aa

0 1
 C                 -1.52685714   -3.19934286    0.07372857
 C                 -1.64385714   -1.69334286   -0.06227143
 O                 -2.71385714   -1.16034286   -0.23427143
 N                 -0.45885714   -0.99234286    0.02572857
 C                 -0.43685714    0.44665714   -0.08827143
 C                  0.99114286    0.96165714    0.04272857
 O                  1.91614286    0.20065714    0.21572857
 N                  1.13814286    2.32965714   -0.05127143
 H                 -0.87085714   -3.60534286   -0.73027143
 H                 -1.08885714   -3.46134286    1.06372857
 H                 -2.52285714   -3.69034286   -0.00727143
 H                 -0.83685714    0.75065714   -1.08327143
 H                 -1.05385714    0.89665714    0.72372857
 C                  2.44214286    2.93665714    0.05672857
 H                  0.40814286   -1.51434286    0.17272857
 H                  0.30114286    2.89865714   -0.19827143
 H                  2.33014286    4.03865714   -0.04527143
 H                  2.89514286    2.71765714    1.05072857
 H                  3.11114286    2.57165714   -0.75527143

 1 2 1.0 9 1.0 10 1.0 11 1.0
 2 3 2.0 4 1.5
 3
 4 5 1.0 15 1.0
 5 6 1.0 12 1.0 13 1.0
 6 7 2.0 8 1.5
 7
 8 14 1.0 16 1.0
 9
 10
 11
 12
 13
 14 17 1.0 18 1.0 19 1.0
 15
 16
 17
 18
 19

