# opt dreiding

N-methylacetamide-Z

0 1
 C                  0.90240000   -1.26342500   -0.00017500
 C                 -0.39760000   -0.47842500    0.03482500
 O                 -1.45960000   -1.04942500    0.10582500
 N                 -0.35760000    0.90057500   -0.01317500
 H                 -1.27060000    1.36057500    0.01482500
 C                  0.86440000    1.66157500   -0.09817500
 H                  1.54440000   -1.00142500    0.87082500
 H                  0.70340000   -2.35942500    0.04582500
 H                  1.45740000   -1.06242500   -0.94517500
 H                  0.60340000    2.74257500   -0.12117500
 H                  1.50740000    1.47757500    0.79282500
 H                  1.41940000    1.41557500   -1.03117500

 1 2 1.0 7 1.0 8 1.0 9 1.0
 2 3 2.0 4 1.5
 3
 4 5 1.0 6 1.0
 5
 6 10 1.0 11 1.0 12 1.0
 7
 8
 9
 10
 11
 12

