# opt dreiding

N-Me-piperidine-eq

0 1
 C                 -0.83448214   -0.88205357    0.32228571
 N                 -0.81048214    0.57394643    0.28228571
 C                  0.55451786    1.08194643    0.31628571
 C                 -0.04748214   -1.49905357   -0.84371429
 C                  1.39451786    0.54094643   -0.85071429
 C                  1.39851786   -0.99105357   -0.84271429
 C                 -1.60248214    1.13694643    1.36728571
 H                 -1.89048214   -1.24205357    0.26528571
 H                 -0.41048214   -1.24805357    1.28828571
 H                  1.04451786    0.80894643    1.28128571
 H                  0.54151786    2.19694643    0.25428571
 H                 -0.53748214   -1.22305357   -1.80871429
 H                 -0.06148214   -2.61305357   -0.77371429
 H                  2.44051786    0.92694643   -0.78471429
 H                  0.96851786    0.90794643   -1.81471429
 H                  1.92551786   -1.36105357    0.06928571
 H                  1.95151786   -1.38505357   -1.72971429
 H                 -1.62548214    2.24894643    1.29828571
 H                 -2.65848214    0.78794643    1.30228571
 H                 -1.19348214    0.85094643    2.36428571

 1 2 1.0 4 1.0 8 1.0 9 1.0
 2 3 1.0 7 1.0
 3 5 1.0 10 1.0 11 1.0
 4 6 1.0 12 1.0 13 1.0
 5 6 1.0 14 1.0 15 1.0
 6 16 1.0 17 1.0
 7 18 1.0 19 1.0 20 1.0
 8
 9
 10
 11
 12
 13
 14
 15
 16
 17
 18
 19
 20

