# opt dreiding

N-Me-piperidinium-eq

1 1
 C                 -0.81533333   -0.89761404    0.34370175
 N                 -0.77533333    0.55438596    0.29970175
 C                  0.58366667    1.06838596    0.32470175
 C                 -0.02533333   -1.52261404   -0.81529825
 C                  1.42266667    0.51238596   -0.83529825
 C                  1.42266667   -1.01961404   -0.81029825
 C                 -1.60133333    1.15238596    1.33370175
 H                 -1.87433333   -1.24061404    0.27370175
 H                 -0.40533333   -1.26161404    1.31570175
 H                  1.07066667    0.81338596    1.29570175
 H                  0.55966667    2.18138596    0.24070175
 H                 -0.51033333   -1.24961404   -1.78329825
 H                 -0.04433333   -2.63561404   -0.73929825
 H                  2.46866667    0.89638596   -0.77329825
 H                  0.99666667    0.86938596   -1.80429825
 H                  1.94366667   -1.38161404    0.10770175
 H                  1.97866667   -1.42361404   -1.69029825
 H                 -1.61733333    2.26038596    1.22170175
 H                 -2.65433333    0.80238596    1.23570175
 H                 -1.22733333    0.89538596    2.35170175
 H                 -1.17933333    0.83338596   -0.59729825

 1 2 1.0 4 1.0 8 1.0 9 1.0
 2 3 1.0 7 1.0 21 1.0
 3 5 1.0 10 1.0 11 1.0
 4 6 1.0 12 1.0 13 1.0
 5 6 1.0 14 1.0 15 1.0
 6 16 1.0 17 1.0
 7 18 1.0 19 1.0 20 1.0
 8
 9
 10
 11
 12
 13
 14
 15
 16
 17
 18
 19
 20
 21

