# opt dreiding

N-Me-piperidinium-ax

1 1
 C                 -0.81259649   -0.88735088    0.66164912
 N                 -0.78659649    0.56564912    0.64064912
 C                  0.57740351    1.06764912    0.64264912
 C                 -0.02659649   -1.53135088   -0.49135088
 C                  1.43340351    0.52064912   -0.51035088
 C                  1.41840351   -1.01435088   -0.50435088
 C                 -1.60059649    1.13464912   -0.41835088
 H                 -1.86959649   -1.24535088    0.66264912
 H                 -0.37759649   -1.22735088    1.63064912
 H                  1.05040351    0.77964912    1.61164912
 H                  0.56940351    2.18264912    0.62964912
 H                 -0.51559649   -1.31135088   -1.46835088
 H                 -0.02859649   -2.64235088   -0.37835088
 H                  2.48340351    0.88864912   -0.41235088
 H                  1.05640351    0.89864912   -1.48935088
 H                  1.95040351   -1.38335088    0.40564912
 H                  1.96740351   -1.41235088   -1.39135088
 H                 -2.65359649    0.78764912   -0.31735088
 H                 -1.61759649    2.24464912   -0.33035088
 H                 -1.23559649    0.86564912   -1.43435088
 H                 -1.20959649    0.87564912    1.51764912

 1 2 1.0 4 1.0 8 1.0 9 1.0
 2 3 1.0 7 1.0 21 1.0
 3 5 1.0 10 1.0 11 1.0
 4 6 1.0 12 1.0 13 1.0
 5 6 1.0 14 1.0 15 1.0
 6 16 1.0 17 1.0
 7 18 1.0 19 1.0 20 1.0
 8
 9
 10
 11
 12
 13
 14
 15
 16
 17
 18
 19
 20
 21

