# opt dreiding

N-methylformamidine-t

0 1
 C                  0.08809375   -0.64106250   -0.18518750
 N                  0.04609375    0.64193750    0.20881250
 N                  1.20109375   -1.38006250   -0.22418750
 H                 -0.83790625   -1.14706250   -0.50318750
 H                  1.07909375   -2.33806250   -0.54418750
 H                  2.03609375   -0.88306250    0.07481250
 C                 -1.17590625    1.41393750    0.23881250
 H                 -1.06190625    2.29993750   -0.42518750
 H                 -2.06390625    0.82993750   -0.09618750
 H                 -1.35490625    1.76793750    1.27981250

 1 2 1.5 3 1.5 4 1.0
 2 7 1.0
 3 5 1.0 6 1.0
 4
 5
 6
 7 8 1.0 9 1.0 10 1.0
 8
 9
 10

