# opt dreiding

N-methylacetamide-E

0 1
 C                  1.40522500   -1.25505000    0.22830000
 C                  0.10522500   -0.49605000    0.03930000
 O                 -0.94977500   -1.07905000   -0.04870000
 N                  0.22222500    0.87795000   -0.02270000
 H                  1.15622500    1.28395000    0.06030000
 C                 -0.94477500    1.70695000   -0.20070000
 H                  1.89422500   -0.94505000    1.18030000
 H                  1.22922500   -2.35405000    0.26830000
 H                  2.09822500   -1.04405000   -0.61870000
 H                 -0.62377500    2.77195000   -0.22170000
 H                 -1.44877500    1.47095000   -1.16570000
 H                 -1.65677500    1.56795000    0.64430000

 1 2 1.0 7 1.0 8 1.0 9 1.0
 2 3 2.0 4 1.5
 3
 4 5 1.0 6 1.0
 5
 6 10 1.0 11 1.0 12 1.0
 7
 8
 9
 10
 11
 12

