# opt dreiding

N-Me-ethylamine-g+

0 1
 N                 -0.52958824   -0.74061765    0.35617647
 C                 -0.53158824    0.70938235    0.34217647
 C                  0.09741176    1.31438235   -0.91982353
 C                  0.79241176   -1.32661765    0.39117647
 H                 -1.59658824    1.03838235    0.39817647
 H                 -0.02458824    1.10038235    1.25617647
 H                 -0.07358824    2.41438235   -0.95782353
 H                  1.20041176    1.15738235   -0.95282353
 H                 -1.01658824   -1.07861765   -0.47482353
 H                 -0.34558824    0.87038235   -1.84082353
 H                  0.69541176   -2.43061765    0.50317647
 H                  1.33841176   -1.13261765   -0.55982353
 H                  1.38041176   -0.93761765    1.25417647

 1 2 1.0 4 1.0 9 1.0
 2 3 1.0 5 1.0 6 1.0
 3 7 1.0 8 1.0 10 1.0
 4 11 1.0 12 1.0 13 1.0
 5
 6
 7
 8
 9
 10
 11
 12
 13

