# opt dreiding

N-Me-ethylamine-a

0 1
 N                  0.02023529   -0.72885294    0.01526471
 C                  0.02823529    0.71814706   -0.06573529
 C                  0.61523529    1.32114706    1.21626471
 C                 -0.55076471   -1.35085294   -1.15973529
 H                  0.63423529    1.04514706   -0.94473529
 H                 -1.01576471    1.08914706   -0.19973529
 H                  0.62423529    2.43414706    1.16826471
 H                  0.01923529    1.02214706    2.10926471
 H                 -0.51676471   -1.01285294    0.83626471
 H                  1.66423529    0.97914706    1.37526471
 H                 -0.52176471   -2.45785294   -1.03573529
 H                 -1.61476471   -1.04385294   -1.28673529
 H                  0.02923529   -1.08385294   -2.07373529

 1 2 1.0 4 1.0 9 1.0
 2 3 1.0 5 1.0 6 1.0
 3 7 1.0 8 1.0 10 1.0
 4 11 1.0 12 1.0 13 1.0
 5
 6
 7
 8
 9
 10
 11
 12
 13

