# opt dreiding

N-methylformamidine-cis

0 1
 C                 -0.64478125   -0.66478125    0.00003125
 N                 -0.68378125    0.67721875    0.00003125
 N                  0.44121875   -1.44378125    0.00003125
 H                 -1.61478125   -1.18678125    0.00003125
 H                  0.25421875   -2.44378125    0.00003125
 H                  1.32621875   -0.94178125    0.00003125
 C                  0.51821875    1.47421875    0.00003125
 H                  0.24321875    2.55321875    0.00003125
 H                  1.12421875    1.26421875    0.91103125
 H                  1.12421875    1.26421875   -0.91196875

 1 2 1.5 3 1.5 4 1.0
 2 7 1.0
 3 5 1.0 6 1.0
 4
 5
 6
 7 8 1.0 9 1.0 10 1.0
 8
 9
 10

