# opt dreiding

NAPA-anti

0 1
 C                 -2.21830000   -4.06170909    0.21730000
 C                 -1.06330000   -3.08670909    0.08330000
 O                  0.06170000   -3.47670909   -0.11970000
 N                 -1.39030000   -1.75370909    0.23830000
 C                 -0.39430000   -0.69870909    0.15230000
 C                  0.28270000   -0.48770909    1.50630000
 O                  0.34870000    0.59329091    2.03730000
 N                  0.82570000   -1.60170909    2.09530000
 H                 -2.99130000   -3.84570909   -0.55470000
 H                 -2.67830000   -3.97070909    1.22730000
 H                 -1.87530000   -5.11370909    0.08330000
 C                 -1.04130000    0.56629091   -0.44170000
 H                  0.41570000   -1.02370909   -0.54370000
 H                  1.29170000   -1.48470909    2.99630000
 H                 -2.36030000   -1.53570909    0.48030000
 H                  0.78570000   -2.50270909    1.61630000
 C                 -0.04130000    1.65629091   -0.76570000
 C                 -0.02830000    2.86329091   -0.05670000
 C                  0.88270000    1.48629091   -1.80370000
 C                  1.80770000    2.48429091   -2.11470000
 C                  0.89370000    3.86629091   -0.36170000
 C                  1.81670000    3.67729091   -1.39070000
 H                 -1.82730000    0.94129091    0.25430000
 H                 -1.56830000    0.30329091   -1.38970000
 H                 -0.75230000    3.03229091    0.75830000
 H                  0.88270000    0.55329091   -2.39070000
 H                  2.52970000    2.33229091   -2.93470000
 H                  0.89170000    4.80929091    0.21030000
 H                  2.54470000    4.46929091   -1.63470000

 1 2 1.0 9 1.0 10 1.0 11 1.0
 2 3 2.0 4 1.5
 3
 4 5 1.0 15 1.0
 5 6 1.0 12 1.0 13 1.0
 6 7 2.0 8 1.5
 7
 8 14 1.0 16 1.0
 9
 10
 11
 12 17 1.0 23 1.0 24 1.0
 13
 14
 15
 16
 17 18 1.5 19 1.5
 18 21 1.5 25 1.0
 19 20 1.5 26 1.0
 20 22 1.5 27 1.0
 21 22 1.5 28 1.0
 22 29 1.0
 23
 24
 25
 26
 27
 28
 29

