# opt dreiding

NAPA-b

0 1
 C                 -2.96999091   -3.62070909    0.35687273
 C                 -1.94199091   -2.69170909   -0.26112727
 O                 -1.57799091   -2.84270909   -1.40412727
 N                 -1.47699091   -1.69070909    0.56787273
 C                 -0.42499091   -0.77470909    0.16287273
 C                  0.83600909   -1.03670909    0.98787273
 O                  0.78800909   -1.58770909    2.06187273
 N                  2.02400909   -0.58770909    0.46787273
 H                 -3.86699091   -3.04070909    0.67287273
 H                 -2.53599091   -4.13070909    1.24787273
 H                 -3.29599091   -4.40170909   -0.36712727
 C                 -0.91599091    0.67529091    0.32087273
 H                 -0.14999091   -0.95270909   -0.90412727
 H                  2.87000909   -0.75370909    1.01687273
 H                 -1.81999091   -1.68370909    1.53187273
 H                  2.05000909   -0.12070909   -0.43912727
 C                  0.10100909    1.68729091   -0.15612727
 C                  0.84900909    2.44529091    0.75287273
 C                  0.31400909    1.88829091   -1.52512727
 C                  1.25400909    2.81729091   -1.97712727
 C                  1.78900909    3.37529091    0.30787273
 C                  1.99500909    3.56329091   -1.05912727
 H                 -1.18199091    0.86229091    1.38687273
 H                 -1.85499091    0.81729091   -0.26412727
 H                  0.70400909    2.30529091    1.83687273
 H                 -0.26299091    1.30429091   -2.26012727
 H                  1.41200909    2.96029091   -3.05912727
 H                  2.37400909    3.96129091    1.03787273
 H                  2.73900909    4.29629091   -1.41312727

 1 2 1.0 9 1.0 10 1.0 11 1.0
 2 3 2.0 4 1.5
 3
 4 5 1.0 15 1.0
 5 6 1.0 12 1.0 13 1.0
 6 7 2.0 8 1.5
 7
 8 14 1.0 16 1.0
 9
 10
 11
 12 17 1.0 23 1.0 24 1.0
 13
 14
 15
 16
 17 18 1.5 19 1.5
 18 21 1.5 25 1.0
 19 20 1.5 26 1.0
 20 22 1.5 27 1.0
 21 22 1.5 28 1.0
 22 29 1.0
 23
 24
 25
 26
 27
 28
 29

