# opt dreiding

NAPA-g+

0 1
 C                 -0.05695455   -3.42319091   -1.59562727
 C                  0.90604545   -2.25819091   -1.46762727
 O                  2.06104545   -2.36219091   -1.80662727
 N                  0.37504545   -1.11119091   -0.91162727
 C                  1.16404545    0.09180909   -0.70962727
 C                  1.90004545    0.05080909    0.62837273
 O                  1.96104545    1.00480909    1.36537273
 N                  2.53404545   -1.12519091    0.94237273
 H                 -0.91895455   -3.13819091   -2.24062727
 H                 -0.43895455   -3.71319091   -0.59062727
 H                  0.44204545   -4.31019091   -2.04862727
 C                  0.30704545    1.35280909   -0.94062727
 H                  1.97804545    0.12180909   -1.47262727
 H                  3.05304545   -1.16619091    1.82037273
 H                 -0.59195455   -1.16019091   -0.58362727
 H                  2.52304545   -1.90319091    0.28037273
 C                 -0.88895455    1.44080909   -0.01862727
 C                 -2.06295455    0.72980909   -0.29762727
 C                 -0.87295455    2.26980909    1.10937273
 C                 -1.97895455    2.35680909    1.95737273
 C                 -3.17295455    0.80980909    0.54537273
 C                 -3.13095455    1.62080909    1.67937273
 H                 -0.06095455    1.35880909   -1.99362727
 H                  0.93804545    2.26680909   -0.83962727
 H                 -2.12095455    0.09580909   -1.19762727
 H                  0.02104545    2.87180909    1.34037273
 H                 -1.94495455    3.01180909    2.84437273
 H                 -4.08595455    0.23680909    0.31037273
 H                 -4.00795455    1.68980909    2.34537273

 1 2 1.0 9 1.0 10 1.0 11 1.0
 2 3 2.0 4 1.5
 3
 4 5 1.0 15 1.0
 5 6 1.0 12 1.0 13 1.0
 6 7 2.0 8 1.5
 7
 8 14 1.0 16 1.0
 9
 10
 11
 12 17 1.0 23 1.0 24 1.0
 13
 14
 15
 16
 17 18 1.5 19 1.5
 18 21 1.5 25 1.0
 19 20 1.5 26 1.0
 20 22 1.5 27 1.0
 21 22 1.5 28 1.0
 22 29 1.0
 23
 24
 25
 26
 27
 28
 29

