# opt dreiding

piperidine-ax

0 1
 C                 -1.07997917   -0.71075000    0.64637500
 N                 -1.04797917    0.73825000    0.66737500
 C                  0.30502083    1.25625000    0.64737500
 C                 -0.37397917   -1.26875000   -0.59662500
 C                  1.06902083    0.77925000   -0.59562500
 C                  1.06902083   -0.75275000   -0.66662500
 H                 -1.54797917    1.09025000   -0.14962500
 H                 -2.14697917   -1.03775000    0.65437500
 H                 -0.60497917   -1.10875000    1.57437500
 H                  0.84002083    0.94225000    1.57537500
 H                  0.25402083    2.37025000    0.65637500
 H                 -0.92797917   -0.95075000   -1.51162500
 H                 -0.38297917   -2.38575000   -0.57562500
 H                  2.11802083    1.16325000   -0.57362500
 H                  0.58302083    1.19525000   -1.51062500
 H                  1.65602083   -1.16675000    0.18737500
 H                  1.56102083   -1.09875000   -1.60762500

 1 2 1.0 4 1.0 8 1.0 9 1.0
 2 3 1.0 7 1.0
 3 5 1.0 10 1.0 11 1.0
 4 6 1.0 12 1.0 13 1.0
 5 6 1.0 14 1.0 15 1.0
 6 16 1.0 17 1.0
 7
 8
 9
 10
 11
 12
 13
 14
 15
 16
 17

