# opt dreiding

propylamine-g

0 1
 N                  1.26464706   -0.32017647   -0.89026471
 C                  0.58764706   -0.71317647    0.32073529
 C                 -0.87335294   -0.24117647    0.33373529
 H                  0.77964706   -0.68117647   -1.71126471
 H                  0.62964706   -1.82517647    0.38973529
 H                  1.14264706   -0.29517647    1.19373529
 H                 -1.41435294   -0.67917647   -0.54026471
 H                 -1.37335294   -0.62617647    1.25473529
 C                 -0.99935294    1.28782353    0.29673529
 H                  2.20264706   -0.71817647   -0.92726471
 H                 -2.06935294    1.60082353    0.33973529
 H                 -0.47535294    1.75382353    1.16273529
 H                 -0.56435294    1.71082353   -0.63726471

 1 2 1.0 4 1.0 10 1.0
 2 3 1.0 5 1.0 6 1.0
 3 7 1.0 8 1.0 9 1.0
 4
 5
 6
 7
 8
 9 11 1.0 12 1.0 13 1.0
 10
 11
 12
 13

