# opt dreiding

propanediamine-H+-GGg

1 1
 C                  0.11134884    1.35093023   -0.40176744
 N                 -0.73065116    0.73493023   -1.39476744
 H                  1.15034884    1.42093023   -0.80076744
 H                 -0.26265116    2.39093023   -0.24976744
 H                 -1.68465116    0.63093023   -1.05076744
 H                 -0.79965116    1.32093023   -2.22576744
 C                  0.09434884    0.59693023    0.93823256
 C                  0.76834884   -0.78106977    0.90123256
 N                 -0.07765116   -1.69606977    0.07323256
 H                  0.83834884   -1.21306977    1.92623256
 H                  1.79134884   -0.72906977    0.46123256
 H                 -0.11265116   -1.40406977   -0.92676744
 H                  0.28234884   -2.67406977    0.08523256
 H                 -1.06265116   -1.73206977    0.41323256
 H                  0.63034884    1.22093023    1.69323256
 H                 -0.95665116    0.49493023    1.29923256

 1 2 1.0 3 1.0 4 1.0 7 1.0
 2 5 1.0 6 1.0
 3
 4
 5
 6
 7 8 1.0 15 1.0 16 1.0
 8 9 1.0 10 1.0 11 1.0
 9 12 1.0 13 1.0 14 1.0
 10
 11
 12
 13
 14
 15
 16

