# opt dreiding

propanediamine-gGGg

0 1
 C                  0.18423810    1.30209524   -0.41557143
 N                 -0.73376190    0.74209524   -1.37557143
 H                  1.21323810    1.28109524   -0.84457143
 H                 -0.09876190    2.37109524   -0.26957143
 H                 -1.67076190    0.66909524   -0.98057143
 H                 -0.82376190    1.35009524   -2.18857143
 C                  0.14123810    0.57109524    0.93442857
 C                  0.65123810   -0.87790476    0.88542857
 N                 -0.21476190   -1.74390476    0.12542857
 H                  0.72423810   -1.29090476    1.91942857
 H                  1.66923810   -0.91390476    0.43442857
 H                 -0.25576190   -1.45590476   -0.85057143
 H                  0.15223810   -2.69490476    0.10942857
 H                  0.77023810    1.14009524    1.66142857
 H                 -0.90076190    0.58509524    1.33442857

 1 2 1.0 3 1.0 4 1.0 7 1.0
 2 5 1.0 6 1.0
 3
 4
 5
 6
 7 8 1.0 14 1.0 15 1.0
 8 9 1.0 10 1.0 11 1.0
 9 12 1.0 13 1.0
 10
 11
 12
 13
 14
 15

