# opt dreiding

propanediamine-tTTt

0 1
 C                  0.60797619    0.72497619    1.01014286
 N                  0.64097619    2.16697619    0.99114286
 H                  1.65797619    0.34697619    1.03414286
 H                  0.09497619    0.39397619    1.94314286
 H                  1.09997619    2.50797619    0.14814286
 H                 -0.30302381    2.54997619    0.96414286
 C                 -0.12502381    0.17997619   -0.22385714
 C                 -0.17202381   -1.35402381   -0.22685714
 N                 -0.86502381   -1.84302381   -1.39485714
 H                 -0.70202381   -1.72702381    0.68114286
 H                  0.86097619   -1.77302381   -0.22785714
 H                 -1.81602381   -1.47602381   -1.43185714
 H                 -0.41202381   -1.51802381   -2.24785714
 H                 -1.16602381    0.58397619   -0.24485714
 H                  0.38797619    0.53797619   -1.14885714

 1 2 1.0 3 1.0 4 1.0 7 1.0
 2 5 1.0 6 1.0
 3
 4
 5
 6
 7 8 1.0 14 1.0 15 1.0
 8 9 1.0 10 1.0 11 1.0
 9 12 1.0 13 1.0
 10
 11
 12
 13
 14
 15

