# opt dreiding

pyrrolidine-ax

0 1
 C                 -0.99150000   -0.69747500   -0.32930000
 N                 -0.88450000    0.73952500   -0.47730000
 C                  0.53150000    1.03152500   -0.44430000
 C                  0.23950000   -1.15547500    0.47270000
 C                  1.05750000    0.12852500    0.67570000
 H                 -1.34650000    1.20252500    0.30570000
 H                 -0.99950000   -1.16947500   -1.34130000
 H                 -1.95050000   -0.94747500    0.18270000
 H                  0.70650000    2.11552500   -0.24730000
 H                  0.99350000    0.75752500   -1.42330000
 H                  0.82750000   -1.90047500   -0.11530000
 H                 -0.03750000   -1.62247500    1.44770000
 H                  0.81650000    0.58452500    1.66570000
 H                  2.15950000   -0.03947500    0.61770000

 1 2 1.0 4 1.0 7 1.0 8 1.0
 2 3 1.0 6 1.0
 3 5 1.0 9 1.0 10 1.0
 4 5 1.0 11 1.0 12 1.0
 5 13 1.0 14 1.0
 6
 7
 8
 9
 10
 11
 12
 13
 14

