# opt dreiding

1-4-diCl-cyclohexane-dieq

0 1
 C                 -1.11350000   -0.76260000   -0.60868750
 C                 -1.09250000    0.77240000   -0.62468750
 C                  0.34850000    1.30340000   -0.60868750
 C                 -0.34850000   -1.30360000    0.60931250
 C                  1.09250000   -0.77260000    0.62431250
 C                  1.11350000    0.76340000    0.60931250
 H                 -0.64150000   -1.15760000   -1.54068750
 H                 -2.16550000   -1.13660000   -0.58468750
 H                 -1.64850000    1.16540000    0.26031250
 H                  0.35050000    2.42040000   -0.58468750
 H                  0.87850000    0.99040000   -1.54068750
 H                 -0.35050000   -2.42060000    0.58531250
 H                 -0.87850000   -0.99060000    1.54031250
 H                  1.64850000   -1.16560000   -0.25968750
 H                  2.16550000    1.13740000    0.58531250
 H                  0.64150000    1.15840000    1.54031250
 Cl                -1.97650000    1.39740000   -2.06968750
 Cl                 1.97650000   -1.39760000    2.06931250

 1 2 1.0 4 1.0 7 1.0 8 1.0
 2 3 1.0 9 1.0 17 1.0
 3 6 1.0 10 1.0 11 1.0
 4 5 1.0 12 1.0 13 1.0
 5 6 1.0 14 1.0 18 1.0
 6 15 1.0 16 1.0
 7
 8
 9
 10
 11
 12
 13
 14
 15
 16
 17
 18

