# opt dreiding

BisSiMe3-cycl-dieq

0 1
 C                 -0.95110938   -2.09718750   -0.78532031
 C                 -0.63810938   -0.61718750   -0.46132031
 C                  0.88289062   -0.40818750   -0.23432031
 C                 -0.12010938   -2.66318750   -1.93932031
 C                  1.70689062   -1.06818750   -1.36532031
 C                  1.36389062   -2.54218750   -1.59732031
 Si                -1.82510938   -0.08218750    0.94167969
 C                 -1.11010938   -0.54418750    2.62267969
 C                 -2.30510938    1.73681250    0.84667969
 C                 -3.47710937   -1.01018750    0.79567969
 Si                 1.51289062    1.39081250   -0.05332031
 C                  0.63689062    2.52381250   -1.27732031
 C                  1.40389062    2.03381250    1.71467969
 C                  3.36289062    1.48581250   -0.47232031
 H                 -2.02110938   -2.22018750   -1.07432031
 H                 -0.77410938   -2.72318750    0.12267969
 H                 -0.94610938   -0.01518750   -1.34832031
 H                  1.16789062   -0.91418750    0.71767969
 H                 -0.34410938   -2.10718750   -2.88132031
 H                 -0.38310938   -3.73518750   -2.11632031
 H                  2.79789062   -1.02918750   -1.13332031
 H                  1.54689062   -0.51018750   -2.31832031
 H                  1.59789062   -3.13718750   -0.68232031
 H                  1.98189062   -2.95718750   -2.43032031
 H                 -1.82610938   -0.21418750    3.40767969
 H                 -0.98810938   -1.65018750    2.65167969
 H                 -0.12510938   -0.05218750    2.76667969
 H                 -3.04710938    1.93481250    1.65167969
 H                 -1.42410938    2.39581250    0.98767969
 H                 -2.76710938    1.91881250   -0.14832031
 H                 -4.15810938   -0.61518750    1.58267969
 H                 -3.90510938   -0.81618750   -0.21332031
 H                 -3.30410938   -2.09618750    0.96067969
 H                  1.02789062    3.55581250   -1.13632031
 H                  0.86589062    2.16081250   -2.30432031
 H                 -0.45910938    2.49881250   -1.10432031
 H                  1.85689062    3.04981250    1.73567969
 H                  0.35289062    2.09081250    2.06067969
 H                  1.98789062    1.34581250    2.36667969
 H                  3.70089062    2.52881250   -0.28232031
 H                  3.91389062    0.77881250    0.18767969
 H                  3.51089062    1.23481250   -1.54632031

 1 2 1.0 4 1.0 15 1.0 16 1.0
 2 3 1.0 7 1.0 17 1.0
 3 5 1.0 11 1.0 18 1.0
 4 6 1.0 19 1.0 20 1.0
 5 6 1.0 21 1.0 22 1.0
 6 23 1.0 24 1.0
 7 8 1.0 9 1.0 10 1.0
 8 25 1.0 26 1.0 27 1.0
 9 28 1.0 29 1.0 30 1.0
 10 31 1.0 32 1.0 33 1.0
 11 12 1.0 13 1.0 14 1.0
 12 34 1.0 35 1.0 36 1.0
 13 37 1.0 38 1.0 39 1.0
 14 40 1.0 41 1.0 42 1.0
 15
 16
 17
 18
 19
 20
 21
 22
 23
 24
 25
 26
 27
 28
 29
 30
 31
 32
 33
 34
 35
 36
 37
 38
 39
 40
 41
 42

