# opt dreiding

BisSiMe3-cycl-diaxial

0 1
 C                 -1.12451562   -1.53762500   -0.52509375
 C                 -0.75251562   -0.09162500   -0.14709375
 C                  0.75648438    0.07537500    0.13590625
 C                 -0.23751562   -2.12762500   -1.62709375
 C                  1.63548438   -0.60362500   -0.93009375
 C                  1.23748438   -2.05562500   -1.21509375
 Si                -1.48651563    1.24837500   -1.28809375
 C                 -0.50751562    1.51237500   -2.87209375
 C                 -3.26751562    0.81737500   -1.73309375
 C                 -1.49351562    2.87837500   -0.32809375
 Si                 1.25748438   -0.28962500    1.93990625
 C                  0.60748438   -1.93162500    2.58790625
 C                  3.13548438   -0.26362500    2.10890625
 C                  0.54548438    1.08837500    3.02290625
 H                 -2.19651562   -1.60962500   -0.82209375
 H                 -1.02851562   -2.19162500    0.37190625
 H                 -1.31851562    0.14137500    0.78490625
 H                  1.00648438    1.16237500    0.09990625
 H                 -0.39651562   -1.57462500   -2.58109375
 H                 -0.52451562   -3.18962500   -1.81909375
 H                  2.71348438   -0.55462500   -0.64809375
 H                  1.56148438   -0.03862500   -1.88709375
 H                  1.41448438   -2.68362500   -0.31209375
 H                  1.87748438   -2.47362500   -2.02909375
 H                 -1.04251562    2.27637500   -3.47809375
 H                  0.50648438    1.88637500   -2.60909375
 H                 -0.45051562    0.55537500   -3.43609375
 H                 -3.70451562    1.67937500   -2.28509375
 H                 -3.26651562   -0.08862500   -2.37909375
 H                 -3.83151563    0.63237500   -0.79109375
 H                 -1.95951562    3.65837500   -0.96909375
 H                 -2.08451562    2.73337500    0.60390625
 H                 -0.44251562    3.15237500   -0.08409375
 H                  0.99148438   -2.06262500    3.62390625
 H                 -0.50351562   -1.89662500    2.60290625
 H                  0.97648438   -2.75662500    1.93990625
 H                  3.38648438   -0.34662500    3.18990625
 H                  3.55748438   -1.12862500    1.55090625
 H                  3.51348437    0.69837500    1.69490625
 H                  0.86848438    0.90837500    4.07190625
 H                  0.93848438    2.06237500    2.65490625
 H                 -0.56451562    1.06337500    2.94790625

 1 2 1.0 4 1.0 15 1.0 16 1.0
 2 3 1.0 7 1.0 17 1.0
 3 5 1.0 11 1.0 18 1.0
 4 6 1.0 19 1.0 20 1.0
 5 6 1.0 21 1.0 22 1.0
 6 23 1.0 24 1.0
 7 8 1.0 9 1.0 10 1.0
 8 25 1.0 26 1.0 27 1.0
 9 28 1.0 29 1.0 30 1.0
 10 31 1.0 32 1.0 33 1.0
 11 12 1.0 13 1.0 14 1.0
 12 34 1.0 35 1.0 36 1.0
 13 37 1.0 38 1.0 39 1.0
 14 40 1.0 41 1.0 42 1.0
 15
 16
 17
 18
 19
 20
 21
 22
 23
 24
 25
 26
 27
 28
 29
 30
 31
 32
 33
 34
 35
 36
 37
 38
 39
 40
 41
 42

