# opt dreiding

cis1,3dimethylcyclohex-eq,eq

0 1
 C                 -1.16960937   -1.12007813    0.50193750
 C                 -1.20860937    0.41692188    0.45393750
 C                  0.22139063    0.98192188    0.38293750
 C                 -0.40360937   -1.69207813   -0.69806250
 C                  0.99739063    0.41692188   -0.81906250
 C                  1.02039063   -1.12007813   -0.76206250
 C                 -1.96560938    0.98492187    1.66493750
 H                 -2.20860937   -1.52807812    0.51193750
 H                 -0.67760937   -1.45207812    1.44693750
 H                 -1.75560938    0.72592188   -0.47106250
 H                  0.76439063    0.73292188    1.32393750
 H                 -0.94760937   -1.44507812   -1.64106250
 H                 -0.36160937   -2.80607812   -0.62706250
 H                  0.47039063    0.72592188   -1.75606250
 H                  1.59239063   -1.45207812    0.13593750
 H                  1.54739063   -1.52807812   -1.65706250
 H                 -2.02060937    2.09692188    1.61893750
 H                 -3.00960938    0.59992188    1.70393750
 H                 -1.46360937    0.70892188    2.62093750
 C                  2.42439063    0.98492187   -0.86906250
 H                  0.17939063    2.09492188    0.31093750
 H                  2.98039063    0.59992188   -1.75506250
 H                  2.41239063    2.09692188   -0.94106250
 H                  3.00139062    0.70892188    0.04193750

 1 2 1.0 4 1.0 8 1.0 9 1.0
 2 3 1.0 7 1.0 10 1.0
 3 5 1.0 11 1.0 21 1.0
 4 6 1.0 12 1.0 13 1.0
 5 6 1.0 14 1.0 20 1.0
 6 15 1.0 16 1.0
 7 17 1.0 18 1.0 19 1.0
 8
 9
 10
 11
 12
 13
 14
 15
 16
 17
 18
 19
 20 22 1.0 23 1.0 24 1.0
 21
 22
 23
 24

