# opt dreiding

cyclohexylphosphine-ax

0 1
 C                  0.26162500   -1.70193750   -0.46553125
 C                  1.69262500   -1.14993750   -0.50953125
 C                  1.69062500    0.38306250   -0.42153125
 C                 -0.46737500   -1.23693750    0.80246875
 C                  0.96862500    0.85906250    0.84746875
 C                 -0.45437500    0.29106250    0.95546875
 H                  0.28462500   -2.81793750   -0.49953125
 H                 -0.29537500   -1.36593750   -1.37153125
 H                  2.19762500   -1.47593750   -1.45053125
 H                  2.28062500   -1.57093750    0.34046875
 H                  1.19362500    0.80706250   -1.32553125
 H                  2.74062500    0.76406250   -0.42453125
 H                  0.03362500   -1.68993750    1.69146875
 H                 -1.52037500   -1.60693750    0.80046875
 H                  0.93362500    1.97406250    0.87546875
 H                  1.55362500    0.52906250    1.73846875
 H                 -0.91437500    0.58606250    1.92946875
 P                 -1.72437500    1.19306250   -0.53453125
 H                 -3.04537500    0.69106250   -0.78953125
 H                 -1.72737500    2.61406250   -0.74953125

 1 2 1.0 4 1.0 7 1.0 8 1.0
 2 3 1.0 9 1.0 10 1.0
 3 5 1.0 11 1.0 12 1.0
 4 6 1.0 13 1.0 14 1.0
 5 6 1.0 15 1.0 16 1.0
 6 17 1.0
 7
 8
 9
 10
 11
 12
 13
 14
 15
 16
 17
 18
 19
 20

