# opt dreiding

cyclohexylphosphine-eq

0 1
 C                  0.14921875   -1.60915625   -1.34482813
 C                  1.57921875   -1.05215625   -1.41682813
 C                  1.58021875    0.47884375   -1.30082813
 C                 -0.54878125   -1.15815625   -0.05282813
 C                  0.88321875    0.92984375   -0.00882812
 C                 -0.54478125    0.37284375    0.05317187
 H                  0.17121875   -2.72415625   -1.39582812
 H                 -0.43478125   -1.25115625   -2.22582813
 H                  2.05821875   -1.36115625   -2.37682813
 H                  2.18921875   -1.48815625   -0.59082813
 H                  1.05321875    0.91984375   -2.17982813
 H                  2.62921875    0.86184375   -1.31982813
 H                 -0.01878125   -1.59215625    0.82717188
 H                 -1.59778125   -1.53715625   -0.03082812
 H                  0.85821875    2.04484375    0.04517187
 H                  1.46221875    0.56684375    0.87317187
 H                 -1.17678125    0.82284375   -0.74982813
 P                 -1.44778125    0.95184375    1.92017188
 H                 -1.37378125    2.30584375    2.39417187
 H                 -2.69278125    0.38184375    2.35317188

 1 2 1.0 4 1.0 7 1.0 8 1.0
 2 3 1.0 9 1.0 10 1.0
 3 5 1.0 11 1.0 12 1.0
 4 6 1.0 13 1.0 14 1.0
 5 6 1.0 15 1.0 16 1.0
 6 17 1.0
 7
 8
 9
 10
 11
 12
 13
 14
 15
 16
 17
 18
 19
 20

