# opt dreiding

fluorocyclohexane-ax

0 1
 C                 -0.85271429   -0.94850000   -0.67437500
 C                 -0.09671429   -1.48050000    0.55162500
 C                  1.34428571   -0.95050000    0.57862500
 C                 -0.82771429    0.58550000   -0.73137500
 C                  1.36328571    0.58450000    0.55162500
 C                  0.61028571    1.12050000   -0.67437500
 H                 -1.90871429   -1.30950000   -0.65837500
 H                 -0.38171429   -1.35650000   -1.60037500
 H                 -0.09071429   -2.59750000    0.53962500
 H                  1.90228571   -1.34550000   -0.30337500
 H                  1.86928571   -1.32150000    1.49262500
 H                 -1.32971429    0.94050000   -1.66437500
 H                  2.41828571    0.95050000    0.53962500
 H                  0.89328571    0.97850000    1.48362500
 H                  1.15128571    0.81250000   -1.60037500
 H                  0.59828571    2.23650000   -0.65837500
 H                 -0.62571429   -1.16950000    1.48362500
 F                 -1.52671429    1.07950000    0.37062500

 1 2 1.0 4 1.0 7 1.0 8 1.0
 2 3 1.0 9 1.0 17 1.0
 3 5 1.0 10 1.0 11 1.0
 4 6 1.0 12 1.0 18 1.0
 5 6 1.0 13 1.0 14 1.0
 6 15 1.0 16 1.0
 7
 8
 9
 10
 11
 12
 13
 14
 15
 16
 17
 18

