# opt dreiding

Me3SiO-cycl-ax

0 1
 C                 -2.05543750    0.10001042   -2.03148958
 C                 -1.77243750    1.60501042   -2.13748958
 C                 -0.72043750    2.04001042   -1.10748958
 C                 -0.76143750   -0.71398958   -2.18348958
 C                  0.56556250    1.21601042   -1.26048958
 C                  0.29656250   -0.29598958   -1.14648958
 O                 -0.17943750   -0.65898958    0.13551042
 Si                 0.68756250   -0.64398958    1.51651042
 C                 -0.00843750   -2.00898958    2.61651042
 C                  2.50356250   -0.98298958    1.17751042
 C                  0.48156250    1.00701042    2.39251042
 H                 -2.52543750   -0.12098958   -1.04348958
 H                 -2.78943750   -0.20298958   -2.81548958
 H                 -1.40443750    1.84201042   -3.16448958
 H                 -2.71543750    2.18301042   -1.98648958
 H                 -0.49243750    3.12601042   -1.23248958
 H                 -1.13243750    1.91401042   -0.07848958
 H                 -0.98443750   -1.80298958   -2.08148958
 H                 -0.35243750   -0.56398958   -3.21148958
 H                  1.00956250    1.42501042   -2.26348958
 H                  1.32856250    1.54301042   -0.51748958
 H                  1.23556250   -0.86998958   -1.34848958
 H                  0.56156250   -2.01198958    3.57251042
 H                 -1.08443750   -1.79398958    2.80351042
 H                  0.11056250   -2.98098958    2.08751042
 H                  3.03656250   -1.01698958    2.15451042
 H                  2.59056250   -1.96198958    0.65651042
 H                  2.91456250   -0.16398958    0.54651042
 H                  1.00756250    0.94601042    3.37151042
 H                  0.92656250    1.81401042    1.77051042
 H                 -0.60543750    1.18901042    2.54751042

 1 2 1.0 4 1.0 12 1.0 13 1.0
 2 3 1.0 14 1.0 15 1.0
 3 5 1.0 16 1.0 17 1.0
 4 6 1.0 18 1.0 19 1.0
 5 6 1.0 20 1.0 21 1.0
 6 7 1.0 22 1.0
 7 8 2.0
 8 9 1.0 10 1.0 11 1.0
 9 23 1.0 24 1.0 25 1.0
 10 26 1.0 27 1.0 28 1.0
 11 29 1.0 30 1.0 31 1.0
 12
 13
 14
 15
 16
 17
 18
 19
 20
 21
 22
 23
 24
 25
 26
 27
 28
 29
 30
 31

