# opt dreiding

phenylcyclohexane-eq

0 1
 C                  0.17367045   -1.59961364    0.77830682
 C                  1.24967045   -2.20161364    1.69530682
 C                  2.65767045   -1.85861364    1.18530682
 C                  0.35167045   -0.07761364    0.64730682
 C                  2.83767045   -0.33861364    1.05730682
 C                  1.76267045    0.26438636    0.13930682
 H                 -0.83932955   -1.82961364    1.18630682
 H                  0.24367045   -2.08561364   -0.22269318
 H                  1.12567045   -3.30961364    1.75230682
 H                  2.81967045   -2.33761364    0.19030682
 H                  0.25867045    0.35338636    1.67430682
 C                 -0.72432955    0.53938636   -0.22869318
 H                  3.85367045   -0.10961364    0.65530682
 H                  1.90967045   -0.13161364   -0.89269318
 H                  1.88967045    1.37238636    0.08830682
 H                  3.42567045   -2.27561364    1.88030682
 C                 -1.62032955    1.48138636    0.29330682
 C                 -0.85432955    0.18738636   -1.57769318
 C                 -1.84432955    0.75538636   -2.38169318
 C                 -2.61332955    2.05438636   -0.50269318
 C                 -2.72832955    1.69238636   -1.84569318
 H                  1.12267045   -1.80561364    2.73130682
 H                  2.77267045    0.13038636    2.06730682
 H                 -1.55132955    1.78438636    1.35130682
 H                 -0.16932955   -0.54961364   -2.02769318
 H                 -1.92932955    0.46438636   -3.44269318
 H                 -3.30832955    2.79438636   -0.07169318
 H                 -3.51232955    2.14338636   -2.47769318

 1 2 1.0 4 1.0 7 1.0 8 1.0
 2 3 1.0 9 1.0 22 1.0
 3 5 1.0 10 1.0 16 1.0
 4 6 1.0 11 1.0 12 1.0
 5 6 1.0 13 1.0 23 1.0
 6 14 1.0 15 1.0
 7
 8
 9
 10
 11
 12 17 1.5 18 1.5
 13
 14
 15
 16
 17 20 1.5 24 1.0
 18 19 1.5 25 1.0
 19 21 1.5 26 1.0
 20 21 1.5 27 1.0
 21 28 1.0
 22
 23
 24
 25
 26
 27
 28

