# opt dreiding

trans1,2difluorocycloh-ax,ax

0 1
 C                 -1.01350000   -1.04401563    0.44093750
 C                 -0.98950000    0.48898437    0.50693750
 C                  0.44750000    1.04298437    0.43193750
 C                 -0.25950000   -1.56901563   -0.78906250
 C                  1.20950000    0.48998437   -0.78006250
 C                  1.18350000   -1.04501563   -0.81206250
 H                 -2.07050000   -1.40401563    0.42293750
 H                 -0.54550000   -1.46101563    1.36393750
 H                 -1.48250000    0.84198438    1.44393750
 H                  0.42250000    2.15898437    0.39293750
 H                 -0.78650000   -1.24901563   -1.71906250
 H                 -0.25750000   -2.68601563   -0.78506250
 H                  2.26550000    0.85298438   -0.76006250
 H                  0.74950000    0.88398437   -1.71806250
 H                  1.74050000   -1.44901563    0.06693750
 H                  1.70750000   -1.41401563   -1.72606250
 F                 -1.69650000    0.98898437   -0.58806250
 F                  1.11750000    0.64898437    1.59093750

 1 2 1.0 4 1.0 7 1.0 8 1.0
 2 3 1.0 9 1.0 17 1.0
 3 5 1.0 10 1.0 18 1.0
 4 6 1.0 11 1.0 12 1.0
 5 6 1.0 13 1.0 14 1.0
 6 15 1.0 16 1.0
 7
 8
 9
 10
 11
 12
 13
 14
 15
 16
 17
 18

