# opt dreiding

trans1,2difluorocycloh-eq,eq

0 1
 C                 -0.92912500   -1.25676562    0.31831250
 C                 -0.91612500    0.27823438    0.35331250
 C                  0.52987500    0.81323438    0.31531250
 C                 -0.18312500   -1.78376563   -0.91568750
 C                  1.27487500    0.27923438   -0.91668750
 C                  1.25787500   -1.25576562   -0.94568750
 H                 -1.98212500   -1.62576563    0.31431250
 H                 -0.44312500   -1.65476563    1.23931250
 H                 -1.49812500    0.68423437   -0.50768750
 H                  1.07187500    0.52023438    1.24531250
 H                 -0.71912500   -1.46276562   -1.84068750
 H                 -0.17912500   -2.90076563   -0.90968750
 H                  2.32787500    0.64923438   -0.91268750
 H                  0.79087500    0.66923437   -1.84368750
 H                  1.81987500   -1.65176562   -0.06668750
 H                  1.77887500   -1.62476563   -1.86168750
 F                 -1.50512500    0.67823437    1.55531250
 F                  0.48587500    2.20523438    0.21031250

 1 2 1.0 4 1.0 7 1.0 8 1.0
 2 3 1.0 9 1.0 17 1.0
 3 5 1.0 10 1.0 18 1.0
 4 6 1.0 11 1.0 12 1.0
 5 6 1.0 13 1.0 14 1.0
 6 15 1.0 16 1.0
 7
 8
 9
 10
 11
 12
 13
 14
 15
 16
 17
 18

