# opt dreiding

trimethylsilylcyclohexane-ax

0 1
 C                  0.92094318   -2.19615909    0.14807955
 C                  2.34394318   -1.65715909    0.34007955
 C                  2.37694318   -0.13615909    0.14807955
 C                 -0.06405682   -1.50315909    1.10007955
 C                  1.39594318    0.56184091    1.10007955
 C                 -0.04405682    0.03184091    0.98407955
 H                  0.90794318   -3.29815909    0.32607955
 H                  0.60494318   -2.04315909   -0.90892045
 H                  3.03894318   -2.14915909   -0.38192045
 H                  2.70294318   -1.91115909    1.36607955
 H                  2.12794318    0.11084091   -0.90892045
 H                  3.41194318    0.24384091    0.32607955
 H                  0.21394318   -1.78515909    2.14407955
 H                 -1.09405682   -1.90115909    0.93807955
 H                  1.42794318    1.66484091    0.93807955
 H                  1.75394318    0.39384091    2.14407955
 H                 -0.60705682    0.42984091    1.86307955
 Si                -1.08805682    0.76884091   -0.42692045
 C                 -0.49205682    0.34784091   -2.16092045
 C                 -2.86605682    0.15384091   -0.25092045
 C                 -1.10005682    2.65084091   -0.25092045
 H                 -1.18605682    0.83884091   -2.87992045
 H                  0.53494318    0.74684091   -2.30692045
 H                 -0.52505682   -0.75315909   -2.30692045
 H                 -3.49005682    0.67384091   -1.01092045
 H                 -2.88305682   -0.94515909   -0.42592045
 H                 -3.22105682    0.39484091    0.77607955
 H                 -1.79905682    3.06584091   -1.01092045
 H                 -1.44605682    2.90484091    0.77607955
 H                 -0.07005682    3.03284091   -0.42592045

 1 2 1.0 4 1.0 7 1.0 8 1.0
 2 3 1.0 9 1.0 10 1.0
 3 5 1.0 11 1.0 12 1.0
 4 6 1.0 13 1.0 14 1.0
 5 6 1.0 15 1.0 16 1.0
 6 17 1.0 18 1.0
 7
 8
 9
 10
 11
 12
 13
 14
 15
 16
 17
 18 19 1.0 20 1.0 21 1.0
 19 22 1.0 23 1.0 24 1.0
 20 25 1.0 26 1.0 27 1.0
 21 28 1.0 29 1.0 30 1.0
 22
 23
 24
 25
 26
 27
 28
 29
 30

