# opt uff

1-4-diCl-cyclohexane-diax

0 1
 C                 -1.12948750   -0.75266250   -0.59473750
 C                 -1.10748750    0.78333750   -0.64473750
 C                  0.33351250    1.31533750   -0.59473750
 C                 -0.33348750   -1.31566250    0.59426250
 C                  1.10751250   -0.78266250    0.64426250
 C                  1.12951250    0.75333750    0.59426250
 H                 -0.69148750   -1.14566250   -1.54273750
 H                 -2.18148750   -1.12666250   -0.56373750
 H                 -1.60648750    1.13533750   -1.57973750
 H                  0.33551250    2.43233750   -0.56373750
 H                  0.84951250    1.03433750   -1.54273750
 H                 -0.33548750   -2.43166250    0.56426250
 H                 -0.84948750   -1.03466250    1.54226250
 H                  1.60551250   -1.13566250    1.57926250
 H                  2.18151250    1.12633750    0.56426250
 H                  0.69151250    1.14533750    1.54226250
 Cl                -2.09648750    1.48233750    0.69526250
 Cl                 2.09651250   -1.48266250   -0.69473750

 1 2 1.0 4 1.0 7 1.0 8 1.0
 2 3 1.0 9 1.0 17 1.0
 3 6 1.0 10 1.0 11 1.0
 4 5 1.0 12 1.0 13 1.0
 5 6 1.0 14 1.0 18 1.0
 6 15 1.0 16 1.0
 7
 8
 9
 10
 11
 12
 13
 14
 15
 16
 17
 18

