# opt uff

1-4-diF-cyclohexane-diax

0 1
 C                 -1.08300000   -0.76229687    0.66300000
 C                 -1.10900000    0.77270313    0.62100000
 C                 -0.35200000    1.30570312   -0.60300000
 C                  0.35200000   -1.30629687    0.60300000
 C                  1.10900000   -0.77229687   -0.62100000
 C                  1.08300000    0.76170312   -0.66300000
 F                 -0.47400000    1.25070313    1.76800000
 F                  0.47400000   -1.25029688   -1.76800000
 H                 -1.58900000   -1.12229687    1.59100000
 H                 -1.66800000   -1.16129688   -0.20000000
 H                 -2.16400000    1.13870312    0.61100000
 H                 -0.90000000    1.01070313   -1.53000000
 H                 -0.33600000    2.42170313   -0.58000000
 H                  0.90000000   -1.01029687    1.53000000
 H                  0.33600000   -2.42229687    0.58000000
 H                  2.16400000   -1.13829687   -0.61100000
 H                  1.66800000    1.16170313    0.20000000
 H                  1.58900000    1.12270313   -1.59100000

 1 2 1.0 4 1.0 9 1.0 10 1.0
 2 3 1.0 7 1.0 11 1.0
 3 6 1.0 12 1.0 13 1.0
 4 5 1.0 14 1.0 15 1.0
 5 6 1.0 8 1.0 16 1.0
 6 17 1.0 18 1.0
 7
 8
 9
 10
 11
 12
 13
 14
 15
 16
 17
 18

