# opt uff

aminocyclohexane-ax

0 1
 C                 -0.05367857   -1.51135714   -0.53500000
 C                  1.38632143   -0.97835714   -0.54600000
 C                  1.40532143    0.55664286   -0.53800000
 C                 -0.83167857   -0.96135714    0.66900000
 C                  0.62732143    1.10764286    0.66600000
 C                 -0.81467857    0.57564286    0.70100000
 H                 -0.04467857   -2.62735714   -0.50200000
 H                 -0.56567857   -1.22035714   -1.48200000
 H                  1.92732143   -1.36135714   -1.44500000
 H                  1.93032143   -1.36035714    0.35100000
 H                  0.95632143    0.93964286   -1.48600000
 H                  2.45932143    0.92264286   -0.50800000
 H                 -0.37367857   -1.35235714    1.60900000
 H                 -1.88467857   -1.33135714    0.64400000
 H                  0.62132143    2.22364286    0.63800000
 H                  1.15032143    0.80964286    1.60600000
 H                 -1.31467857    0.92964286    1.63600000
 N                 -1.57467857    1.10964286   -0.40500000
 H                 -1.60767857    2.12764286   -0.36500000
 H                 -2.54467857    0.79964286   -0.36300000

 1 2 1.0 4 1.0 7 1.0 8 1.0
 2 3 1.0 9 1.0 10 1.0
 3 5 1.0 11 1.0 12 1.0
 4 6 1.0 13 1.0 14 1.0
 5 6 1.0 15 1.0 16 1.0
 6 17 1.0 18 1.0
 7
 8
 9
 10
 11
 12
 13
 14
 15
 16
 17
 18 19 1.0 20 1.0
 19
 20

