# opt uff

chlorocyclohexane-eq

0 1
 C                  0.14545312   -1.65193750   -1.13998437
 C                  1.58645313   -1.12193750   -1.16498437
 C                  1.60545312    0.41306250   -1.13998437
 C                 -0.61354688   -1.11693750    0.08401563
 C                  0.84845313    0.95106250    0.08401563
 C                 -0.59154688    0.41906250    0.10501563
 H                  0.15145312   -2.76793750   -1.12698437
 H                 -0.38254688   -1.33793750   -2.07198437
 H                  2.11245313   -1.49393750   -2.07698437
 H                  2.14345313   -1.51593750   -0.28198437
 H                  1.13345312    0.80706250   -2.07198437
 H                  2.66045313    0.78006250   -1.12698437
 H                 -0.13754688   -1.51593750    1.01101562
 H                 -1.66554687   -1.49093750    0.06201563
 H                  0.85045313    2.06806250    0.06201563
 H                  1.38345312    0.63506250    1.01101562
 H                 -1.15154687    0.81406250   -0.77598437
 Cl                -1.46954688    1.03906250    1.55401563

 1 2 1.0 4 1.0 7 1.0 8 1.0
 2 3 1.0 9 1.0 10 1.0
 3 5 1.0 11 1.0 12 1.0
 4 6 1.0 13 1.0 14 1.0
 5 6 1.0 15 1.0 16 1.0
 6 17 1.0 18 1.0
 7
 8
 9
 10
 11
 12
 13
 14
 15
 16
 17
 18

