# opt uff

chlorocyclohexane-ax

0 1
 C                  0.18931250   -1.68350000   -0.44629687
 C                  1.63031250   -1.15250000   -0.45829687
 C                  1.65031250    0.38250000   -0.44629687
 C                 -0.58568750   -1.13750000    0.76270313
 C                  0.87731250    0.93150000    0.76270313
 C                 -0.56268750    0.39750000    0.82970313
 H                  0.19831250   -2.79950000   -0.41729687
 H                 -0.32268750   -1.39150000   -1.39229687
 H                  2.16831250   -1.53350000   -1.35929687
 H                  2.17631250   -1.53850000    0.43570313
 H                  1.20431250    0.76850000   -1.39229687
 H                  2.70531250    0.74650000   -0.41729687
 H                 -0.11768750   -1.54050000    1.69270312
 H                 -1.63668750   -1.51350000    0.75070313
 H                  0.88231250    2.04850000    0.75070313
 H                  1.41331250    0.62450000    1.69270312
 H                 -1.04368750    0.73750000    1.77870312
 Cl                -1.57768750    1.11550000   -0.47929687

 1 2 1.0 4 1.0 7 1.0 8 1.0
 2 3 1.0 9 1.0 10 1.0
 3 5 1.0 11 1.0 12 1.0
 4 6 1.0 13 1.0 14 1.0
 5 6 1.0 15 1.0 16 1.0
 6 17 1.0 18 1.0
 7
 8
 9
 10
 11
 12
 13
 14
 15
 16
 17
 18

