# opt uff

cyclohexylmethylketone-eq

0 1
 C                 -0.10658571   -1.26395714    0.02205714
 C                  0.48041429   -1.66295714    1.38505714
 C                  1.73141429   -0.83695714    1.71105714
 C                 -0.42258571    0.24004286   -0.03894286
 C                  1.41241429    0.66304286    1.66905714
 C                  0.83641429    1.05904286    0.30205714
 H                 -1.02858571   -1.86595714   -0.15894286
 H                  0.61941429   -1.51995714   -0.78594286
 H                  0.73241429   -2.75095714    1.38705714
 H                 -0.28658571   -1.50395714    2.18005714
 H                  2.53541429   -1.06895714    0.97205714
 H                  2.12141429   -1.11695714    2.71905714
 H                 -1.20158571    0.47604286    0.72605714
 C                 -1.02658571    0.63604286   -1.38394286
 H                  2.33641429    1.25404286    1.87905714
 H                  0.67641429    0.91104286    2.47105714
 H                  1.61441429    0.89404286   -0.48094286
 H                  0.59541429    2.14904286    0.30605714
 C                 -2.35558571    0.01304286   -1.77494286
 O                 -0.48958571    1.43704286   -2.11594286
 H                 -2.82258571    0.56904286   -2.61894286
 H                 -2.20558571   -1.04095714   -2.09994286
 H                 -3.06558571    0.03404286   -0.91694286

 1 2 1.0 4 1.0 7 1.0 8 1.0
 2 3 1.0 9 1.0 10 1.0
 3 5 1.0 11 1.0 12 1.0
 4 6 1.0 13 1.0 14 1.0
 5 6 1.0 15 1.0 16 1.0
 6 17 1.0 18 1.0
 7
 8
 9
 10
 11
 12
 13
 14 19 1.0 20 2.0
 15
 16
 17
 18
 19 21 1.0 22 1.0 23 1.0
 20
 21
 22
 23

