# opt uff

cyclohexanethiol-eq

0 1
 C                  0.19654688   -1.66881250   -1.17214062
 C                  1.61854687   -1.08881250   -1.20614062
 C                  1.58654687    0.44618750   -1.18614062
 C                 -0.57545313   -1.15481250    0.05185938
 C                  0.81454688    0.96218750    0.03785938
 C                 -0.60645312    0.38118750    0.05685937
 H                  0.24154688   -2.78481250   -1.15314063
 H                 -0.34545313   -1.37881250   -2.10414063
 H                  2.15354687   -1.44581250   -2.11914062
 H                  2.19254688   -1.46081250   -0.32414063
 H                  1.09954688    0.82018750   -2.11814063
 H                  2.62854688    0.84818750   -1.17614062
 H                 -0.08045312   -1.53181250    0.97785937
 H                 -1.61545313   -1.56281250    0.03785938
 H                  0.77654687    2.07718750    0.01485937
 H                  1.36254688    0.66518750    0.96385937
 H                 -1.18045313    0.75018750   -0.82614063
 S                 -1.48345313    0.96718750    1.65085938
 H                 -1.70345312    2.26618750    1.91985938

 1 2 1.0 4 1.0 7 1.0 8 1.0
 2 3 1.0 9 1.0 10 1.0
 3 5 1.0 11 1.0 12 1.0
 4 6 1.0 13 1.0 14 1.0
 5 6 1.0 15 1.0 16 1.0
 6 17 1.0
 7
 8
 9
 10
 11
 12
 13
 14
 15
 16
 17
 18 19 1.0
 19

