# opt uff

fluorocyclohexane-eq

0 1
 C                 -0.85957143   -0.94153571   -0.35507143
 C                 -0.11457143   -1.46953571    0.88092857
 C                  1.32542857   -0.93753571    0.91992857
 C                 -0.83757143    0.59246429   -0.38107143
 C                  1.34742857    0.59846429    0.88092857
 C                  0.60142857    1.12346429   -0.35507143
 H                 -1.91357143   -1.30653571   -0.35107143
 H                 -0.37457143   -1.33853571   -1.27807143
 H                 -0.10857143   -2.58553571    0.87292857
 H                  1.89342857   -1.33853571    0.04792857
 H                  1.83942857   -1.30053571    1.84192857
 H                 -1.40357143    0.99246429    0.49392857
 H                  2.40242857    0.96446429    0.87292857
 H                  0.86742857    1.00146429    1.80392857
 H                  1.13742857    0.79846429   -1.27807143
 H                  0.59442857    2.24046429   -0.35107143
 H                 -0.65457143   -1.15153571    1.80392857
 F                 -1.45057143    1.02546429   -1.55807143

 1 2 1.0 4 1.0 7 1.0 8 1.0
 2 3 1.0 9 1.0 17 1.0
 3 5 1.0 10 1.0 11 1.0
 4 6 1.0 12 1.0 18 1.0
 5 6 1.0 13 1.0 14 1.0
 6 15 1.0 16 1.0
 7
 8
 9
 10
 11
 12
 13
 14
 15
 16
 17
 18

