# opt uff

hydroxycyclohexane-eq

0 1
 C                 -0.09066071   -1.49037500   -0.87976786
 C                  1.34633929   -0.95037500   -0.90476786
 C                  1.35733929    0.58462500   -0.86876786
 C                 -0.85166071   -0.96737500    0.34723214
 C                  0.59933929    1.10862500    0.35923214
 C                 -0.83866071    0.56862500    0.37923214
 H                 -0.07766071   -2.60737500   -0.87176786
 H                 -0.62266071   -1.17537500   -1.80876786
 H                  1.87333929   -1.31337500   -1.81976786
 H                  1.90833929   -1.34637500   -0.02476786
 H                  0.88133929    0.98162500   -1.79676786
 H                  2.40933929    0.95762500   -0.85376786
 H                 -0.37566071   -1.36337500    1.27623214
 H                 -1.90366071   -1.33937500    0.33023214
 H                  0.58533929    2.22462500    0.35223214
 H                  1.13133929    0.78962500    1.28723214
 H                 -1.40666071    0.97262500   -0.49576786
 O                 -1.49666071    1.01762500    1.54323214
 H                 -1.56166071    1.95562500    1.48523214

 1 2 1.0 4 1.0 7 1.0 8 1.0
 2 3 1.0 9 1.0 10 1.0
 3 5 1.0 11 1.0 12 1.0
 4 6 1.0 13 1.0 14 1.0
 5 6 1.0 15 1.0 16 1.0
 6 17 1.0 18 1.0
 7
 8
 9
 10
 11
 12
 13
 14
 15
 16
 17
 18 19 1.0
 19

