# opt uff

isopropylcyclohexane-eq

0 1
 C                  0.59187500   -1.95426389   -1.10845833
 C                  2.03187500   -1.43626389   -1.01545833
 C                  2.03987500    0.09273611   -1.10845833
 C                 -0.28612500   -1.33726389   -0.01045833
 C                  1.16487500    0.71573611   -0.01045833
 C                 -0.29112500    0.20573611   -0.05145833
 H                  0.58587500   -3.06826389   -1.02045833
 H                  0.16887500   -1.70326389   -2.11045833
 H                  2.65087500   -1.87426389   -1.83645833
 H                  2.48787500   -1.75926389   -0.04945833
 H                  1.66187500    0.40873611   -2.11045833
 H                  3.08787500    0.46973611   -1.02045833
 H                  0.07587500   -1.67826389    0.98754167
 H                 -1.31712500   -1.73826389   -0.14445833
 H                  1.19987500    1.82173611   -0.14445833
 H                  1.60787500    0.48773611    0.98754167
 H                 -0.73412500    0.51973611   -1.02645833
 C                 -1.15812500    0.81873611    1.08054167
 C                 -2.61612500    0.32073611    1.04354167
 C                 -1.17412500    2.35973611    1.04354167
 H                 -0.72012500    0.50973611    2.06154167
 H                 -3.24212500    0.83373611    1.80954167
 H                 -3.07912500    0.51073611    0.04754167
 H                 -2.70012500   -0.76626389    1.26754167
 H                 -1.86612500    2.77873611    1.80954167
 H                 -0.17712500    2.80073611    1.26754167
 H                 -1.50812500    2.73273611    0.04754167

 1 2 1.0 4 1.0 7 1.0 8 1.0
 2 3 1.0 9 1.0 10 1.0
 3 5 1.0 11 1.0 12 1.0
 4 6 1.0 13 1.0 14 1.0
 5 6 1.0 15 1.0 16 1.0
 6 17 1.0 18 1.0
 7
 8
 9
 10
 11
 12
 13
 14
 15
 16
 17
 18 19 1.0 20 1.0 21 1.0
 19 22 1.0 23 1.0 24 1.0
 20 25 1.0 26 1.0 27 1.0
 21
 22
 23
 24
 25
 26
 27

