# opt uff

me_cyclohexanecarboxylate-ax

0 1
 C                  0.05493590   -1.40521795   -0.85570513
 C                  0.72393590   -1.82621795    0.46129487
 C                  2.17093590   -1.31521795    0.51929487
 C                  0.06293590    0.12678205   -1.02270513
 C                  2.21893590    0.20878205    0.34329487
 C                  1.51393590    0.63978205   -0.95270513
 H                 -0.98406410   -1.80921795   -0.90370513
 H                  0.60593590   -1.87021795   -1.70670513
 H                  0.71293590   -2.93921795    0.55329487
 H                  0.14593590   -1.42121795    1.32429487
 H                  2.76893590   -1.80121795   -0.28770513
 H                  2.63793590   -1.60321795    1.49229487
 H                 -0.34506410    0.37778205   -2.03270513
 C                 -0.86106410    0.83778205   -0.04270513
 H                  3.28093590    0.55478205    0.33029487
 H                  1.73493590    0.69578205    1.22229487
 H                  2.08593590    0.23378205   -1.82070513
 H                  1.53993590    1.75078205   -1.05270513
 O                 -0.56906410    1.79778205    0.63029487
 O                 -2.07706410    0.26478205   -0.06170513
 C                 -3.05906410    0.81778205    0.77929487
 H                 -3.98306410    0.21478205    0.63529487
 H                 -3.25606410    1.87278205    0.48029487
 H                 -2.72906410    0.73778205    1.84129487

 1 2 1.0 4 1.0 7 1.0 8 1.0
 2 3 1.0 9 1.0 10 1.0
 3 5 1.0 11 1.0 12 1.0
 4 6 1.0 13 1.0 14 1.0
 5 6 1.0 15 1.0 16 1.0
 6 17 1.0 18 1.0
 7
 8
 9
 10
 11
 12
 13
 14 19 2.0 20 1.0
 15
 16
 17
 18
 19
 20 21 1.0
 21 22 1.0 23 1.0 24 1.0
 22
 23
 24

