# opt uff

methoxycyclohexane-ax

0 1
 C                  0.38529687   -1.60004687   -0.44917187
 C                  1.79729688   -0.99804688   -0.49717188
 C                  1.74029687    0.53695313   -0.49317188
 C                 -0.38670313   -1.07404688    0.76882812
 C                  0.94629687    1.05695313    0.71482812
 C                 -0.47170313    0.46195312    0.75882812
 H                  0.45129687   -2.71404687   -0.40517188
 H                 -0.16570313   -1.34204687   -1.38417188
 H                  2.33529688   -1.35704687   -1.40717187
 H                  2.38029687   -1.34804688    0.38782812
 H                  1.26329687    0.89195313   -1.43717187
 H                  2.77529687    0.95495312   -0.47617188
 H                  0.13829687   -1.39804687    1.69882813
 H                 -1.39870312   -1.53804688    0.81882813
 H                  0.88929687    2.17095313    0.67982813
 H                  1.48929687    0.79095313    1.65382812
 H                 -0.99370313    0.84095312    1.67082813
 O                 -1.15770313    0.94995313   -0.38017187
 C                 -2.54370312    0.69895312   -0.38817187
 H                 -2.95870312    1.25595313   -1.25717188
 H                 -2.73470313   -0.38604688   -0.53817187
 H                 -3.01170312    1.08195313    0.54782812

 1 2 1.0 4 1.0 7 1.0 8 1.0
 2 3 1.0 9 1.0 10 1.0
 3 5 1.0 11 1.0 12 1.0
 4 6 1.0 13 1.0 14 1.0
 5 6 1.0 15 1.0 16 1.0
 6 17 1.0 18 1.0
 7
 8
 9
 10
 11
 12
 13
 14
 15
 16
 17
 18 19 1.0
 19 20 1.0 21 1.0 22 1.0
 20
 21
 22

