# opt uff

methoxycyclohexane-eq

0 1
 C                  0.23928125   -1.81328125   -1.04634375
 C                  1.65128125   -1.21428125   -1.08134375
 C                  1.58628125    0.31871875   -1.09234375
 C                 -0.54071875   -1.28728125    0.16665625
 C                  0.79728125    0.85171875    0.11365625
 C                 -0.61671875    0.24871875    0.16165625
 H                  0.29928125   -2.92828125   -1.00634375
 H                 -0.30471875   -1.54628125   -1.98334375
 H                  2.19828125   -1.58028125   -1.98334375
 H                  2.22528125   -1.55728125   -0.18734375
 H                  1.09728125    0.66171875   -2.03534375
 H                  2.62028125    0.74171875   -1.08734375
 H                 -0.04171875   -1.63228125    1.10365625
 H                 -1.57071875   -1.71728125    0.16765625
 H                  0.75428125    1.96371875    0.03865625
 H                  1.33928125    0.60071875    1.05665625
 H                 -1.21671875    0.57271875   -0.72334375
 O                 -1.30471875    0.62471875    1.34065625
 C                 -1.70171875    1.97471875    1.38565625
 H                 -2.33471875    2.08771875    2.29365625
 H                 -0.81071875    2.63171875    1.48965625
 H                 -2.30671875    2.22971875    0.48565625

 1 2 1.0 4 1.0 7 1.0 8 1.0
 2 3 1.0 9 1.0 10 1.0
 3 5 1.0 11 1.0 12 1.0
 4 6 1.0 13 1.0 14 1.0
 5 6 1.0 15 1.0 16 1.0
 6 17 1.0 18 1.0
 7
 8
 9
 10
 11
 12
 13
 14
 15
 16
 17
 18 19 1.0
 19 20 1.0 21 1.0 22 1.0
 20
 21
 22

