# opt uff

methylcyclohexane-eq

0 1
 C                 -0.03732143   -1.52021429   -0.86396429
 C                  1.40367857   -0.99321429   -0.84796429
 C                  1.42067857    0.54178571   -0.86396429
 C                 -0.84132143   -0.95021429    0.31403571
 C                  0.61567857    1.11078571    0.31403571
 C                 -0.83132143    0.58778571    0.30403571
 H                 -0.03432143   -2.63621429   -0.81796429
 H                 -0.52832143   -1.23421429   -1.82396429
 H                  1.96467857   -1.38921429   -1.72796429
 H                  1.92567857   -1.36221429    0.06703571
 H                  0.98667857    0.90978571   -1.82396429
 H                  2.47367857    0.91078571   -0.81796429
 H                 -0.40532143   -1.32021429    1.27203571
 H                 -1.89232143   -1.32521429    0.26503571
 H                  0.61867857    2.22578571    0.26503571
 H                  1.10967857    0.82278571    1.27203571
 H                 -1.32432143    0.93678571   -0.63696429
 C                 -1.62732143    1.15078571    1.49303571
 H                 -1.18032143    0.83478571    2.46403571
 H                 -1.64632143    2.26478571    1.47403571
 H                 -2.68432143    0.79678571    1.47403571

 1 2 1.0 4 1.0 7 1.0 8 1.0
 2 3 1.0 9 1.0 10 1.0
 3 5 1.0 11 1.0 12 1.0
 4 6 1.0 13 1.0 14 1.0
 5 6 1.0 15 1.0 16 1.0
 6 17 1.0 18 1.0
 7
 8
 9
 10
 11
 12
 13
 14
 15
 16
 17
 18 19 1.0 20 1.0 21 1.0
 19
 20
 21

