# opt uff

methylcyclohexane-ax

0 1
 C                 -0.02375000   -1.53192857   -0.50146429
 C                  1.41625000   -1.00192857   -0.48346429
 C                  1.43625000    0.53307143   -0.50146429
 C                 -0.83475000   -0.95692857    0.66853571
 C                  0.62425000    1.10607143    0.66853571
 C                 -0.82375000    0.58307143    0.69653571
 H                 -0.01475000   -2.64692857   -0.44346429
 H                 -0.50875000   -1.26792857   -1.47046429
 H                  1.98125000   -1.40092857   -1.36046429
 H                  1.93525000   -1.36892857    0.43353571
 H                  1.02625000    0.90207143   -1.47046429
 H                  2.49125000    0.89707143   -0.44346429
 H                 -0.39775000   -1.33892857    1.62253571
 H                 -1.88475000   -1.33192857    0.62653571
 H                  0.62725000    2.22107143    0.62653571
 H                  1.12925000    0.82107143    1.62253571
 H                 -1.28775000    0.91007143    1.66153571
 C                 -1.68475000    1.19107143   -0.42346429
 H                 -1.31275000    0.92807143   -1.43846429
 H                 -2.73975000    0.83807143   -0.35446429
 H                 -1.70275000    2.30307143   -0.35446429

 1 2 1.0 4 1.0 7 1.0 8 1.0
 2 3 1.0 9 1.0 10 1.0
 3 5 1.0 11 1.0 12 1.0
 4 6 1.0 13 1.0 14 1.0
 5 6 1.0 15 1.0 16 1.0
 6 17 1.0 18 1.0
 7
 8
 9
 10
 11
 12
 13
 14
 15
 16
 17
 18 19 1.0 20 1.0 21 1.0
 19
 20
 21

