# opt uff

Ph3SiO-cycl-ax

0 1
 C                  1.35179167   -3.66534896   -0.16863542
 C                  2.84379167   -3.84934896    0.14636458
 C                  3.50979167   -2.50234896    0.45836458
 C                  0.63779167   -2.93634896    0.97936458
 C                  2.78579167   -1.78734896    1.60936458
 C                  1.29279167   -1.57834896    1.29236458
 O                  1.19279167   -0.69634896    0.18736458
 Si                -0.04620833    0.32765104   -0.06663542
 C                  0.20679167    1.19065104   -1.71663542
 C                 -1.66220833   -0.62234896   -0.10563542
 C                 -0.08820833    1.64865104    1.26636458
 H                  0.87579167   -4.66034896   -0.34063542
 H                  1.23679167   -3.08534896   -1.11463542
 H                  3.35679167   -4.33834896   -0.71663542
 H                  2.95579167   -4.53034896    1.02336458
 H                  3.49679167   -1.85934896   -0.45363542
 H                  4.58179167   -2.66334896    0.72636458
 H                  0.67379167   -3.57434896    1.89436458
 H                 -0.44120833   -2.81134896    0.73136458
 H                  3.27479167   -0.80434896    1.81136458
 H                  2.88579167   -2.39334896    2.54036458
 H                  0.80079167   -1.10834896    2.18136458
 C                 -0.82820833    1.93965104   -2.28663542
 C                 -0.64720833    2.59065104   -3.50863542
 C                  0.57879167    2.50965104   -4.16863542
 C                  1.62379167    1.78165104   -3.59863542
 C                  1.43879167    1.13165104   -2.37663542
 C                 -2.40620833   -0.82334896    1.06236458
 C                 -2.10120833   -1.22334896   -1.29063542
 C                 -3.29120833   -1.95134896   -1.32463542
 C                 -3.59720833   -1.55034896    1.03436458
 C                 -4.04620833   -2.11034896   -0.16163542
 C                 -1.25020833    2.39765104    1.48636458
 C                  1.05779167    1.96165104    2.00536458
 C                  1.02779167    2.95465104    2.98536458
 C                 -1.28620833    3.39265104    2.46536458
 C                 -0.14720833    3.66865104    3.22336458
 H                 -1.80220833    2.02065104   -1.77663542
 H                 -1.47320833    3.17265104   -3.95063542
 H                  0.72479167    3.02565104   -5.13263542
 H                  2.59879167    1.72265104   -4.11263542
 H                  2.28079167    0.56865104   -1.94063542
 H                 -2.05420833   -0.41434896    2.02436458
 H                 -1.50620833   -1.13034896   -2.21563542
 H                 -3.62920833   -2.41334896   -2.26763542
 H                 -4.17620833   -1.69634896    1.96236458
 H                 -4.98220833   -2.69434896   -0.18463542
 H                 -2.15620833    2.20965104    0.88536458
 H                  2.00379167    1.42665104    1.82136458
 H                  1.93779167    3.18365104    3.56636458
 H                 -2.21220833    3.96765104    2.63336458
 H                 -0.17120833    4.45765104    3.99236458

 1 2 1.0 4 1.0 12 1.0 13 1.0
 2 3 1.0 14 1.0 15 1.0
 3 5 1.0 16 1.0 17 1.0
 4 6 1.0 18 1.0 19 1.0
 5 6 1.0 20 1.0 21 1.0
 6 7 1.0 22 1.0
 7 8 2.0
 8 9 1.0 10 1.0 11 1.0
 9 23 1.5 27 1.5
 10 28 1.5 29 1.5
 11 33 1.5 34 1.5
 12
 13
 14
 15
 16
 17
 18
 19
 20
 21
 22
 23 24 1.5 38 1.0
 24 25 1.5 39 1.0
 25 26 1.5 40 1.0
 26 27 1.5 41 1.0
 27 42 1.0
 28 31 1.5 43 1.0
 29 30 1.5 44 1.0
 30 32 1.5 45 1.0
 31 32 1.5 46 1.0
 32 47 1.0
 33 36 1.5 48 1.0
 34 35 1.5 49 1.0
 35 37 1.5 50 1.0
 36 37 1.5 51 1.0
 37 52 1.0
 38
 39
 40
 41
 42
 43
 44
 45
 46
 47
 48
 49
 50
 51
 52

