# opt uff

Ph3SiO-cycl-eq

0 1
 C                  0.75229167   -4.04568750   -2.40543750
 C                  2.23529167   -4.21668750   -2.04743750
 C                  2.86929167   -2.86368750   -1.69343750
 C                 -0.00870833   -3.35768750   -1.26443750
 C                  2.10129167   -2.18068750   -0.55343750
 C                  0.61829167   -1.99368750   -0.92343750
 O                 -0.10070833   -1.42868750    0.15956250
 Si                -0.32070833    0.17231250    0.36156250
 C                 -1.21470833    0.47631250    1.98556250
 C                  1.33929167    1.04531250    0.38556250
 C                 -1.39670833    0.86231250   -1.01543750
 H                  0.29629167   -5.04168750   -2.62143750
 H                  0.66129167   -3.43468750   -3.33543750
 H                  2.78329167   -4.68268750   -2.90143750
 H                  2.33029167   -4.91068750   -1.17843750
 H                  2.86429167   -2.20268750   -2.59243750
 H                  3.93629167   -3.00968750   -1.39943750
 H                  0.00429167   -4.01068750   -0.35943750
 H                 -1.07870833   -3.22468750   -1.55543750
 H                  2.58029167   -1.19968750   -0.32943750
 H                  2.18029167   -2.79868750    0.37256250
 H                  0.52729167   -1.32968750   -1.81943750
 C                 -1.29070833    1.76731250    2.51856250
 C                 -1.96170833    2.00631250    3.71856250
 C                 -2.57970833    0.95331250    4.39456250
 C                 -2.53070833   -0.33468750    3.85956250
 C                 -1.85870833   -0.56768750    2.65856250
 C                  1.92729167    1.49631250   -0.80043750
 C                  2.05529167    1.17731250    1.58056250
 C                  3.30229167    1.80531250    1.60056250
 C                  3.17429167    2.12531250   -0.78743750
 C                  3.86129167    2.28731250    0.41656250
 C                 -1.40370833    2.23431250   -1.28943750
 C                 -2.26570833    0.03331250   -1.73243750
 C                 -3.07570833    0.55131250   -2.74543750
 C                 -2.21070833    2.75831250   -2.30043750
 C                 -3.04470833    1.91531250   -3.03643750
 H                 -0.81770833    2.61431250    1.99356250
 H                 -2.00770833    3.02831250    4.13156250
 H                 -3.11370833    1.14031250    5.34156250
 H                 -3.02970833   -1.16768750    4.38356250
 H                 -1.84270833   -1.59168750    2.24756250
 H                  1.41529167    1.35331250   -1.76643750
 H                  1.64329167    0.78131250    2.52356250
 H                  3.85229167    1.90931250    2.55156250
 H                  3.62329167    2.48131250   -1.72943750
 H                  4.85029167    2.77631250    0.42856250
 H                 -0.76770833    2.92131250   -0.70643750
 H                 -2.32470833   -1.04368750   -1.50643750
 H                 -3.74870833   -0.11668750   -3.30943750
 H                 -2.19770833    3.84131250   -2.51143750
 H                 -3.68770833    2.32831250   -3.83143750

 1 2 1.0 4 1.0 12 1.0 13 1.0
 2 3 1.0 14 1.0 15 1.0
 3 5 1.0 16 1.0 17 1.0
 4 6 1.0 18 1.0 19 1.0
 5 6 1.0 20 1.0 21 1.0
 6 7 1.0 22 1.0
 7 8 2.0
 8 9 1.0 10 1.0 11 1.0
 9 23 1.5 27 1.5
 10 28 1.5 29 1.5
 11 33 1.5 34 1.5
 12
 13
 14
 15
 16
 17
 18
 19
 20
 21
 22
 23 24 1.5 38 1.0
 24 25 1.5 39 1.0
 25 26 1.5 40 1.0
 26 27 1.5 41 1.0
 27 42 1.0
 28 31 1.5 43 1.0
 29 30 1.5 44 1.0
 30 32 1.5 45 1.0
 31 32 1.5 46 1.0
 32 47 1.0
 33 36 1.5 48 1.0
 34 35 1.5 49 1.0
 35 37 1.5 50 1.0
 36 37 1.5 51 1.0
 37 52 1.0
 38
 39
 40
 41
 42
 43
 44
 45
 46
 47
 48
 49
 50
 51
 52

