# opt uff

trans1,2dichlorocycloh-ax,ax

0 1
 C                 -0.98435000   -1.24390000    0.24000000
 C                 -0.93435000    0.29210000    0.30400000
 C                  0.51365000    0.82710000    0.32000000
 C                 -0.13835000   -1.81090000   -0.91000000
 C                  1.36665000    0.22310000   -0.80800000
 C                  1.31065000   -1.31190000   -0.82900000
 Cl                -1.84635000    1.00110000   -1.08900000
 Cl                 1.28365000    0.49910000    1.92400000
 H                 -0.60035000   -1.66190000    1.20000000
 H                 -2.03935000   -1.59690000    0.15100000
 H                 -1.48835000    0.65310000    1.20400000
 H                  0.51365000    1.94110000    0.24100000
 H                 -0.15635000   -2.92690000   -0.87800000
 H                 -0.57835000   -1.51290000   -1.89100000
 H                  0.99765000    0.60310000   -1.79000000
 H                  2.42565000    0.56810000   -0.72400000
 H                  1.89365000   -1.69990000   -1.69800000
 H                  1.79465000   -1.72390000    0.08800000

 1 2 1.0 4 1.0 9 1.0 10 1.0
 2 3 1.0 7 1.0 11 1.0
 3 5 1.0 8 1.0 12 1.0
 4 6 1.0 13 1.0 14 1.0
 5 6 1.0 15 1.0 16 1.0
 6 17 1.0 18 1.0
 7
 8
 9
 10
 11
 12
 13
 14
 15
 16
 17
 18

