# opt uff

trans1,2dimethylcycloh-eq,eq

0 1
 C                 -0.93409375   -1.29618750    0.24559375
 C                 -0.91709375    0.24481250    0.25959375
 C                  0.53690625    0.76681250    0.30359375
 C                 -0.11809375   -1.86318750   -0.92340625
 C                  1.35290625    0.18181250   -0.86540625
 C                  1.32590625   -1.35218750   -0.86740625
 C                 -1.77009375    0.75781250    1.43359375
 C                  0.61990625    2.30281250    0.27059375
 H                 -0.52009375   -1.68118750    1.20659375
 H                 -1.98509375   -1.66618750    0.17059375
 H                 -1.38809375    0.60281250   -0.68840625
 H                  1.00490625    0.41881250    1.25659375
 H                 -0.12809375   -2.97918750   -0.89140625
 H                 -0.58609375   -1.55818750   -1.88940625
 H                  0.94090625    0.55981250   -1.83140625
 H                  2.41290625    0.52881250   -0.80440625
 H                  1.90290625   -1.74418750   -1.73940625
 H                  1.82390625   -1.73618750    0.05559375
 H                 -2.78909375    0.30981250    1.41659375
 H                 -1.30309375    0.50081250    2.41159375
 H                 -1.91209375    1.86081250    1.39559375
 H                  1.67890625    2.64781250    0.23059375
 H                  0.09490625    2.71581250   -0.62040625
 H                  0.17490625    2.76481250    1.18059375

 1 2 1.0 4 1.0 9 1.0 10 1.0
 2 3 1.0 7 1.0 11 1.0
 3 5 1.0 8 1.0 12 1.0
 4 6 1.0 13 1.0 14 1.0
 5 6 1.0 15 1.0 16 1.0
 6 17 1.0 18 1.0
 7 19 1.0 20 1.0 21 1.0
 8 22 1.0 23 1.0 24 1.0
 9
 10
 11
 12
 13
 14
 15
 16
 17
 18
 19
 20
 21
 22
 23
 24

