# opt uff

trans1,2dichlorocycloh-eq,eq

0 1
 C                 -0.81296250   -1.65532500    0.03758750
 C                 -0.77996250   -0.11832500    0.05358750
 C                  0.67403750    0.39967500    0.10358750
 C                  0.01303750   -2.21432500   -1.12941250
 C                  1.50103750   -0.17632500   -1.05741250
 C                  1.46103750   -1.71032500   -1.05641250
 Cl                -1.75596250    0.47767500    1.45358750
 Cl                 0.74803750    2.20567500    0.04058750
 H                 -0.40096250   -2.05332500    0.99558750
 H                 -1.86496250   -2.02032500   -0.04741250
 H                 -1.28896250    0.27067500   -0.86041250
 H                  1.14603750    0.10867500    1.07158750
 H                 -0.00196250   -3.33032500   -1.10741250
 H                 -0.44496250   -1.89832500   -2.09641250
 H                  1.09903750    0.19567500   -2.03041250
 H                  2.56303750    0.16467500   -0.98541250
 H                  2.04503750   -2.10832500   -1.92141250
 H                  1.94603750   -2.09632500   -0.12841250

 1 2 1.0 4 1.0 9 1.0 10 1.0
 2 3 1.0 7 1.0 11 1.0
 3 5 1.0 8 1.0 12 1.0
 4 6 1.0 13 1.0 14 1.0
 5 6 1.0 15 1.0 16 1.0
 6 17 1.0 18 1.0
 7
 8
 9
 10
 11
 12
 13
 14
 15
 16
 17
 18

