# opt uff

adrenaline-A

1 1
 C                 -1.07998990   -2.37443434   -0.62367677
 C                 -1.10898990   -1.53243434    0.66032323
 H                 -2.14998990   -1.16543434    0.83632323
 O                 -0.79798990   -2.36143434    1.76032323
 C                 -0.14998990   -0.36143434    0.59832323
 N                 -1.47898990   -1.44543434   -1.73767677
 H                 -0.06298990   -2.78543434   -0.81867677
 H                 -1.80998990   -3.21443434   -0.55967677
 C                  1.23201010   -0.56343434    0.58732323
 C                  2.10301010    0.52256566    0.52232323
 C                  1.63101010    1.83856566    0.46432323
 C                  0.24501010    2.05656566    0.47132323
 C                 -0.61598990    0.95456566    0.53632323
 O                 -0.25598990    3.32256566    0.41332323
 O                  2.49101010    2.89256566    0.40132323
 H                  0.49501010    3.88656566    0.34732323
 H                  3.34101010    2.51956566    0.24932323
 H                 -0.80298990   -1.82243434    2.53232323
 H                 -2.41598990   -1.03043434   -1.53267677
 H                 -0.82498990   -0.63143434   -1.77067677
 C                 -1.50598990   -2.12543434   -3.07567677
 H                  1.64401010   -1.58543434    0.62832323
 H                  3.19101010    0.34056566    0.51532323
 H                 -1.70198990    1.14356566    0.53532323
 H                 -2.24498990   -2.95843434   -3.06867677
 H                 -0.49398990   -2.51643434   -3.32767677
 H                 -1.80698990   -1.38243434   -3.84767677

 1 2 1.0 6 1.0 7 1.0 8 1.0
 2 3 1.0 4 1.0 5 1.0
 3
 4 18 1.0
 5 9 1.5 13 1.5
 6 19 1.0 20 1.0 21 1.0
 7
 8
 9 10 1.5 22 1.0
 10 11 1.5 23 1.0
 11 12 1.5 15 1.0
 12 13 1.5 14 1.0
 13 24 1.0
 14 16 1.0
 15 17 1.0
 16
 17
 18
 19
 20
 21 25 1.0 26 1.0 27 1.0
 22
 23
 24
 25
 26
 27

