# opt uff

dopamine-B

1 1
 C                  2.09285542    1.92357831    0.60836145
 C                  1.93385542    0.85557831   -0.47763855
 H                  1.85385542    1.33557831   -1.48163855
 C                  0.70585542    0.01357831   -0.21663855
 N                  3.32685542    2.69857831    0.26436145
 H                  1.22485542    2.62257831    0.62836145
 H                  2.22485542    1.46757831    1.61636145
 C                  0.78485542   -1.15842169    0.53936145
 C                 -0.35814458   -1.92142169    0.77236145
 C                 -1.60714458   -1.54642169    0.26536145
 C                 -1.70014458   -0.36942169   -0.49363855
 C                 -0.54414458    0.38657831   -0.71863855
 O                 -2.90314458    0.02357831   -0.99763855
 O                 -2.71114458   -2.30742169    0.50636145
 H                 -2.73714458    0.82457831   -1.46263855
 H                 -3.42014458   -1.86242169    0.07436145
 H                  3.51885542    3.45657831    0.95536145
 H                  4.17385542    2.09157831    0.23836145
 H                  3.25385542    3.15357831   -0.67063855
 H                  2.83885542    0.20257831   -0.51063855
 H                  1.75185542   -1.48242169    0.95936145
 H                 -0.27814458   -2.84342169    1.37236145
 H                 -0.62614458    1.31257831   -1.31263855

 1 2 1.0 5 1.0 6 1.0 7 1.0
 2 3 1.0 4 1.0 20 1.0
 3
 4 8 1.5 12 1.5
 5 17 1.0 18 1.0 19 1.0
 6
 7
 8 9 1.5 21 1.0
 9 10 1.5 22 1.0
 10 11 1.5 14 1.0
 11 12 1.5 13 1.0
 12 23 1.0
 13 15 1.0
 14 16 1.0
 15
 16
 17
 18
 19
 20
 21
 22
 23

