# opt uff

noradrenaline-A

1 1
 C                 -1.19457143   -2.63501099   -0.72086813
 C                 -1.27057143   -1.67701099    0.47513187
 H                 -2.31457143   -1.29101099    0.57213187
 O                 -1.01257143   -2.40201099    1.66013187
 C                 -0.30057143   -0.52101099    0.34713187
 N                 -1.54157143   -1.83101099   -1.93486813
 H                 -0.17657143   -3.06701099   -0.84986813
 H                 -1.93157143   -3.46601099   -0.62086813
 C                  1.07942857   -0.73001099    0.41113187
 C                  1.96242857    0.34298901    0.28613187
 C                  1.50342857    1.64998901    0.09413187
 C                  0.12042857    1.87498901    0.02513187
 C                 -0.75157143    0.78698901    0.15213187
 O                 -0.36757143    3.13298901   -0.16386813
 O                  2.37442857    2.68998901   -0.02586813
 H                  0.39042857    3.68598901   -0.24786813
 H                  3.22742857    2.30098901   -0.11086813
 H                 -1.04557143   -1.79301099    2.37813187
 H                 -1.53457143   -2.41001099   -2.80186813
 H                 -2.49057143   -1.40501099   -1.86286813
 H                 -0.87157143   -1.04701099   -2.08886813
 H                  1.48142857   -1.74601099    0.56113187
 H                  3.04742857    0.15498901    0.34113187
 H                 -1.83557143    0.98098901    0.09113187

 1 2 1.0 6 1.0 7 1.0 8 1.0
 2 3 1.0 4 1.0 5 1.0
 3
 4 18 1.0
 5 9 1.5 13 1.5
 6 19 1.0 20 1.0 21 1.0
 7
 8
 9 10 1.5 22 1.0
 10 11 1.5 23 1.0
 11 12 1.5 15 1.0
 12 13 1.5 14 1.0
 13 24 1.0
 14 16 1.0
 15 17 1.0
 16
 17
 18
 19
 20
 21
 22
 23
 24

