$RunGaus
%mem=8000Mb
%nproc=8
# mp2/cc-pVTZ

3,3-diMe-N-Me-azetidine-nlp.hin

0  1
C          -1.66489        -0.23943         0.03685
C          -1.65601         1.29203        -0.22739
C          -0.14589        -0.20656        -0.28995
N          -0.25291         1.17836         0.15830
C          -2.51084        -1.05087        -0.94501
C          -1.96037        -0.59823         1.49979
C           0.64917         2.11349        -0.46700
H          -2.24271         1.91464         0.48607
H          -1.79542         1.56159        -1.30132
H           0.07959        -0.29908        -1.37900
H           0.50993        -0.81694         0.37203
H          -2.29003        -0.78418        -2.00347
H          -2.31380        -2.14000        -0.82247
H          -3.59522        -0.86832        -0.76936
H          -3.03138        -0.40764         1.73827
H          -1.75284        -1.67655         1.68531
H          -1.34596        -0.00913         2.21833
H           0.57591         2.08611        -1.57874
H           0.41239         3.14254        -0.11358
H           1.69367         1.87104        -0.16672

