$RunGaus
%mem=8000Mb
%nproc=8
# mp2/cc-pVTZ

ftrktktku.hin

0  1
C          -1.30489        -1.09062         0.25705
C          -1.29696         0.36688        -0.16326
O          -2.32360         0.93578        -0.45930
C           0.04224         1.07805        -0.19310
H          -1.94125        -1.22160         1.16156
H          -1.71477        -1.72056        -0.56479
H          -0.27897        -1.45162         0.49605
H          -0.07311         2.13832        -0.51470
H           0.50114         1.06917         0.82152
H           0.72802         0.56931        -0.90794

