$RunGaus
%mem=8000Mb
%nproc=8
# mp2/cc-pVTZ

N-Methylo piperidine ch-eq-nlp.hin

0  1
C          -2.49051        -0.57129        -0.92952
C          -2.48258         0.96146        -0.91957
C          -1.74809        -1.08474         0.30929
C          -1.04551         1.49074        -0.81058
C          -0.33609        -0.48562         0.37634
N          -0.36832         0.96781         0.36483
C           0.95675         1.53933         0.52449
H          -1.98567        -0.94435        -1.85245
H          -3.53864        -0.95601        -0.94366
H          -3.08043         1.33101        -0.05212
H          -2.96854         1.35244        -1.84588
H          -1.69341        -2.19991         0.28752
H          -2.31548        -0.80004         1.22770
H          -1.08356         2.60422        -0.74927
H          -0.47523         1.22254        -1.73202
H           0.27299        -0.86188        -0.48021
H           0.15137        -0.83614         1.31686
H           1.62351         1.26757        -0.32655
H           0.89136         2.64907         0.59355
H           1.41755         1.18317         1.47390

