$RunGaus
%mem=8000Mb
%nproc=8
# mp2/cc-pVTZ

N-Me-Acetamide-Z.hin

0  1
C          -2.60616        -0.86709         0.23316
C          -1.26112        -0.29427        -0.17338
N          -1.00559         0.99040         0.26154
C           0.23938         1.64165        -0.06245
O          -0.48281        -0.94046        -0.83477
H          -2.73693        -1.90336        -0.15444
H          -2.68891        -0.89713         1.34350
H          -3.42896        -0.23622        -0.17378
H          -1.72444         1.46024         0.81646
H           0.23524         2.65970         0.38736
H           1.10007         1.07273         0.35766
H           0.35260         1.74279        -1.16603

