$RunGaus
%mem=8000Mb
%nproc=8
# mp2/cc-pVTZ

N-Methylo piperidine ch-eq.hin

0  1
C          -2.48636        -0.57388        -0.93603
C          -2.48375         0.95889        -0.92411
C          -1.74886        -1.08817         0.30540
C          -1.04872         1.49282        -0.79912
C          -0.34097        -0.47864         0.38495
N          -0.38016         0.97814         0.38911
C           0.95955         1.53427         0.51427
H          -1.97496        -0.94331        -1.85679
H          -3.53298        -0.96234        -0.95722
H          -3.09162         1.32573        -0.06252
H          -2.96148         1.34923        -1.85495
H          -1.68630        -2.20281         0.27847
H          -2.32415        -0.81206         1.22148
H          -1.08950         2.60784        -0.75301
H          -0.47169         1.21922        -1.71504
H           0.26948        -0.84536        -0.47504
H           0.14942        -0.84315         1.31968
H           1.60516         1.24787        -0.34848
H           0.91729         2.64663         0.57271
H           1.44386         1.17989         1.45364
Xx         -0.69690         1.15337         0.87019

