$RunGaus
%mem=8000Mb
%nproc=8
# mp2/cc-pVTZ

N-Methylazetidine-without.hin

0  1
N          -0.43587         0.65433        -0.71998
C          -1.65595        -0.67951         0.16529
C          -1.89312         0.59900        -0.68189
C          -0.28674        -0.78767        -0.55728
H          -2.36004        -1.51530        -0.05883
H          -1.56232        -0.47273         1.25940
H          -2.33371         1.46641        -0.13841
H          -0.34384        -1.35093        -1.51973
H           0.58288        -1.05126         0.08783
C           0.14153         1.21572        -1.91630
H          -2.35504         0.38519        -1.67574
H          -0.22616         0.70701        -2.83723
H           1.24988         1.11992        -1.86773
H          -0.11471         2.29787        -1.97359

