$RunGaus
%mem=8000Mb
%nproc=8
# mp2/cc-pVTZ

N-Me-Acetamide-ts.hin

0  1
C          -0.94036        -1.46584        -1.04539
C          -1.43446        -0.45425        -0.02870
N          -0.46722         0.33738         0.55226
C          -0.10382         1.60372        -0.03312
O          -2.60524        -0.35659         0.25098
H          -0.43552        -0.94490        -1.89061
H          -0.21674        -2.16515        -0.56809
H          -1.78387        -2.06454        -1.45902
H          -0.02699        -0.00603         1.40828
H          -0.69859         1.82536        -0.94892
H          -0.27535         2.41065         0.71418
H           0.97661         1.58163        -0.30001

