$RunGaus
%mem=8000Mb
%nproc=8
# mp2/cc-pVTZ

N-Methylazetidine-NI.hin

0  1
N          -0.44508         0.66035        -0.12496
C          -1.81464        -0.74315        -0.25752
C          -1.84657         0.81248        -0.38565
C          -0.27500        -0.75758         0.00079
H          -2.09956        -1.26137        -1.20432
H          -2.40260        -1.11698         0.61476
H          -2.36480         1.34617         0.44441
H           0.34229        -1.17075        -0.83021
H           0.02998        -1.04630         1.03327
C           0.54869         1.67890        -0.02926
H          -2.03152         1.20079        -1.41392
H           1.35600         1.35760         0.66688
H           0.09291         2.61936         0.35466
H           0.98333         1.86461        -1.03715

