$RunGaus
%mem=8000Mb
%nproc=8
# mp2/cc-pVTZ

N-Methylo piperidine-sofa-ax.hin

0  1
C          -1.72982        -1.09396        -0.07763
C          -0.54503        -1.90607         0.47429
C           0.61988        -1.12523         1.10768
C           0.47459         0.40169         1.13932
N          -0.28485         0.95895         0.03413
C          -1.63656         0.42979         0.07435
H          -2.69377        -1.45474         0.35647
H          -1.81205        -1.31487        -1.16934
H          -0.15559        -2.59329        -0.31585
H          -0.94851        -2.59392         1.25599
H           1.54193        -1.35951         0.52257
H           0.83581        -1.50171         2.13696
H           1.47967         0.88641         1.18828
H          -0.02730         0.69107         2.09407
C           0.36039         0.74482        -1.25062
H          -2.26273         0.93622        -0.69957
H          -2.09999         0.71866         1.04850
Xx         -0.32018         1.55425         0.11987
H           1.37305         1.21036        -1.25497
H           0.47223        -0.33378        -1.50079
H          -0.22784         1.23167        -2.06253

