# opt dreiding

DCE-g

0 1
 C                 -1.17723810   -0.67000000   -0.74245238
 C                 -0.45523810   -1.01700000    0.49654762
 C                  0.99676190   -0.51200000    0.48354762
 C                  1.07476190    0.96000000    0.55654762
 N                 -1.72723810   -0.41000000   -1.72845238
 N                  1.12276190    2.11500000    0.63554762
 H                 -1.01023810   -0.60000000    1.36854762
 H                 -0.46623810   -2.12900000    0.58454762
 H                  1.54576190   -0.91500000    1.36654762
 H                  1.52776190   -0.85700000   -0.43445238

 1 2 1.0 5 3.0
 2 3 1.0 7 1.0 8 1.0
 3 4 1.0 9 1.0 10 1.0
 4 6 3.0
 5
 6
 7
 8
 9
 10

