# opt dreiding

1,2-ethanediol-g-,g+,a

0 1
 C                  0.68714706   -0.22861765   -0.58711765
 C                 -0.02785294   -0.72461765    0.67488235
 O                  0.63214706    1.17938235   -0.61411765
 O                 -1.37685294   -0.31561765    0.62988235
 H                  1.76114706   -0.53361765   -0.59111765
 H                  0.19714706   -0.61161765   -1.51411765
 H                 -0.00885294   -1.83961765    0.73688235
 H                  0.43514706   -0.29561765    1.59488235
 H                  0.99114706    1.46538235   -1.43611765
 H                 -1.37385294    0.62438235    0.55688235

 1 2 1.0 3 1.0 5 1.0 6 1.0
 2 4 1.0 7 1.0 8 1.0
 3 9 1.0
 4 10 1.0
 5
 6
 7
 8
 9
 10

