# opt dreiding

DCE-t

0 1
 C                 -0.77416667   -1.72850000   -0.00100000
 C                 -0.72516667   -0.25350000    0.00100000
 C                  0.72483333    0.25350000   -0.00100000
 C                  0.77383333    1.72850000    0.00100000
 N                 -0.79016667   -2.88650000   -0.00300000
 N                  0.79083333    2.88650000    0.00300000
 H                 -1.26816667    0.11350000   -0.90100000
 H                 -1.26516667    0.11050000    0.90600000
 H                  1.26783333   -0.11350000    0.90100000
 H                  1.26483333   -0.11050000   -0.90600000

 1 2 1.0 5 3.0
 2 3 1.0 7 1.0 8 1.0
 3 4 1.0 9 1.0 10 1.0
 4 6 3.0
 5
 6
 7
 8
 9
 10

