# opt dreiding

1-keto-cyclodecanone

0 1
 C                 -0.37832558   -2.04130233    1.36389535
 C                 -0.43532558   -0.54530233    1.72289535
 C                  0.19867442   -2.44830233   -0.00810465
 C                  0.90667442    0.20269767    1.64389535
 C                 -0.57632558   -2.04930233   -1.28110465
 C                 -0.68732558   -0.55530233   -1.63510465
 C                  0.76767442    1.68669767    1.26689535
 C                  0.65067442    0.19269767   -1.76210465
 C                 -0.02932558    1.96869767   -0.00310465
 C                  0.56967442    1.67969767   -1.37610465
 H                 -1.40632558   -2.46730233    1.44989535
 H                  0.23367442   -2.54130233    2.15389535
 H                 -0.83832558   -0.43230233    2.75789535
 H                 -1.20532558   -0.05630233    1.09389535
 H                  0.24067442   -3.56530233   -0.00810465
 H                  1.26667442   -2.15030233   -0.08910465
 H                  1.59467442   -0.27730233    0.91989535
 H                  1.43467442    0.11069767    2.62289535
 H                 -1.60632558   -2.47530233   -1.20910465
 H                 -0.08932558   -2.55330233   -2.15010465
 H                 -1.35532558   -0.06130233   -0.90110465
 H                 -1.24032558   -0.44730233   -2.60010465
 H                  1.77567442    2.15169767    1.15289535
 H                  0.26967442    2.21469767    2.11289535
 H                  1.02767442    0.09469767   -2.80810465
 H                  1.43967442   -0.28330233   -1.14610465
 O                 -1.12432558    2.48069767    0.07689535
 H                 -0.05032558    2.20269767   -2.14210465
 H                  1.58267442    2.14469767   -1.41710465

 1 2 1.0 3 1.0 11 1.0 12 1.0
 2 4 1.0 13 1.0 14 1.0
 3 5 1.0 15 1.0 16 1.0
 4 7 1.0 17 1.0 18 1.0
 5 6 1.0 19 1.0 20 1.0
 6 8 1.0 21 1.0 22 1.0
 7 9 1.0 23 1.0 24 1.0
 8 10 1.0 25 1.0 26 1.0
 9 10 1.0 27 2.0
 10 28 1.0 29 1.0
 11
 12
 13
 14
 15
 16
 17
 18
 19
 20
 21
 22
 23
 24
 25
 26
 27
 28
 29

