# opt dreiding

1-propanol-ga

0 1
 H                 -0.77908824    1.80958824   -0.22447059
 C                 -0.59908824    0.71058824   -0.30547059
 C                  0.13391176    0.17758824    0.93352941
 C                  0.35091176   -1.34041176    0.87952941
 O                  0.18091176    0.49158824   -1.45847059
 H                  1.11891176    0.69358824    1.03452941
 H                 -0.46308824    0.42858824    1.84352941
 H                  0.85791176   -1.70341176    1.80352941
 H                 -0.61908824   -1.88141176    0.79052941
 H                  0.98791176   -1.62941176    0.01252941
 H                 -1.58108824    0.19958824   -0.44947059
 H                 -0.28408824    0.86358824   -2.18847059

 1 2 1.0
 2 3 1.0 5 1.0 11 1.0
 3 4 1.0 6 1.0 7 1.0
 4 8 1.0 9 1.0 10 1.0
 5 12 1.0
 6
 7
 8
 9
 10
 11
 12

