# opt dreiding

1-propanol-aa

0 1
 H                 -1.39241176   -0.13282353   -0.68202941
 C                 -0.37241176    0.31417647   -0.60502941
 C                  0.37158824   -0.20182353    0.63297059
 C                  0.55958824   -1.72282353    0.58497059
 O                 -0.52141176    1.71317647   -0.51702941
 H                  1.37058824    0.29317647    0.69997059
 H                 -0.19841176    0.07317647    1.55197059
 H                  1.10158824   -2.08882353    1.48797059
 H                 -0.42341176   -2.24682353    0.54297059
 H                  1.14958824   -2.02682353   -0.31102941
 H                  0.19158824    0.08917647   -1.54202941
 H                 -0.98041176    1.99717647   -1.28902941

 1 2 1.0
 2 3 1.0 5 1.0 11 1.0
 3 4 1.0 6 1.0 7 1.0
 4 8 1.0 9 1.0 10 1.0
 5 12 1.0
 6
 7
 8
 9
 10
 11
 12

