# opt dreiding

2,5-dimethyl-1,3-dioxane-eq,eq

0 1
 C                 -1.08417188   -0.75035937   -0.46792188
 C                 -1.07817188    0.78064063   -0.52592187
 O                 -0.30117188   -1.16135937    0.62907812
 C                  1.04382812   -0.75535937    0.51107813
 O                  1.01382812    0.64864063    0.62007812
 C                  0.37582812    1.26064063   -0.47692188
 C                  1.83082812   -1.32235938    1.69507812
 C                 -1.80417188    1.30264062   -1.77292187
 H                 -0.68017188   -1.21935937   -1.39592187
 H                 -2.11217188   -1.14335937   -0.29192188
 H                 -1.60517188    1.16864063    0.38207812
 H                  1.48682812   -1.08235937   -0.46092188
 H                  0.94282812    1.01564063   -1.40592187
 H                  0.43382812    2.36064063   -0.30792188
 H                  1.38982812   -0.99735937    2.66607813
 H                  1.83182812   -2.43635937    1.67307812
 H                  2.89082812   -0.97835937    1.66707812
 H                 -1.31317188    0.94164063   -2.70492188
 H                 -2.86417188    0.96064063   -1.79092187
 H                 -1.80617188    2.41664063   -1.79792188

 1 2 1.0 3 1.0 9 1.0 10 1.0
 2 6 1.0 8 1.0 11 1.0
 3 4 1.0
 4 5 1.0 7 1.0 12 1.0
 5 6 1.0
 6 13 1.0 14 1.0
 7 15 1.0 16 1.0 17 1.0
 8 18 1.0 19 1.0 20 1.0
 9
 10
 11
 12
 13
 14
 15
 16
 17
 18
 19
 20

