# opt dreiding

2-butanone-skew

0 1
 C                  0.69707500   -1.16302500    0.93030000
 C                  0.39107500   -0.38302500   -0.33470000
 C                 -0.05492500    1.06297500   -0.18270000
 C                 -1.36392500    1.20397500    0.60330000
 O                  0.52607500   -0.88802500   -1.42670000
 H                  1.21407500   -2.12102500    0.69330000
 H                  1.35807500   -0.57002500    1.60130000
 H                 -0.24692500   -1.40502500    1.46930000
 H                  0.76007500    1.62997500    0.32430000
 H                 -0.18492500    1.50997500   -1.19670000
 H                 -2.17892500    0.60797500    0.13130000
 H                 -1.24992500    0.85997500    1.65730000
 H                 -1.69592500    2.26697500    0.63630000

 1 2 1.0 6 1.0 7 1.0 8 1.0
 2 3 1.0 5 2.0
 3 4 1.0 9 1.0 10 1.0
 4 11 1.0 12 1.0 13 1.0
 5
 6
 7
 8
 9
 10
 11
 12
 13

