# opt dreiding

2-Me THP-ax

0 1
 C                 -1.26233929   -0.79303571   -0.32046429
 C                 -0.62333929   -1.33803571    0.96253571
 C                  0.84466071   -0.90703571    1.04253571
 O                 -1.16433929    0.61896429   -0.37946429
 C                  0.91866071    0.61596429    0.89253571
 C                  0.17166071    1.10196429   -0.36046429
 H                 -2.35033929   -1.04903571   -0.34046429
 H                 -0.80633929   -1.24503571   -1.23346429
 H                 -0.69833929   -2.45203571    0.98653571
 H                 -1.17833929   -0.94903571    1.84953571
 H                  1.43066071   -1.40403571    0.23353571
 H                  1.29366071   -1.22703571    2.01453571
 H                  1.98266071    0.95096429    0.86153571
 H                  0.45766071    1.08596429    1.79453571
 H                  0.08366071    2.21696429   -0.29346429
 C                  0.91066071    0.80496429   -1.67646429
 H                  0.31366071    1.13996429   -2.55546429
 H                  1.88466071    1.34596429   -1.70946429
 H                  1.14166071   -0.27403571   -1.81346429

 1 2 1.0 4 1.0 7 1.0 8 1.0
 2 3 1.0 9 1.0 10 1.0
 3 5 1.0 11 1.0 12 1.0
 4 6 1.0
 5 6 1.0 13 1.0 14 1.0
 6 15 1.0 16 1.0
 7
 8
 9
 10
 11
 12
 13
 14
 15
 16 17 1.0 18 1.0 19 1.0
 17
 18
 19

