# opt dreiding

2-Me THP-eq

0 1
 C                 -1.15671429   -1.06201786   -0.51019643
 C                 -0.54171429   -1.60901786    0.78480357
 C                  0.92928571   -1.19201786    0.88280357
 O                 -1.03571429    0.34898214   -0.56519643
 C                  1.02528571    0.32898214    0.71980357
 C                  0.31928571    0.77398214   -0.57219643
 H                 -2.24671429   -1.30501786   -0.55119643
 H                 -0.67671429   -1.51201786   -1.41319643
 H                 -0.62971429   -2.72201786    0.81280357
 H                 -1.10571429   -1.21001786    1.66280357
 H                  1.51628571   -1.69401786    0.07680357
 H                  1.36428571   -1.51101786    1.86080357
 H                  2.09628571    0.64298214    0.70080357
 H                  0.54828571    0.82798214    1.59680357
 H                  0.83028571    0.32498214   -1.46119643
 C                  0.34628571    2.30298214   -0.71919643
 H                  1.39228571    2.68598214   -0.74819643
 H                 -0.15671429    2.62398214   -1.66119643
 H                 -0.17671429    2.79898214    0.13080357

 1 2 1.0 4 1.0 7 1.0 8 1.0
 2 3 1.0 9 1.0 10 1.0
 3 5 1.0 11 1.0 12 1.0
 4 6 1.0
 5 6 1.0 13 1.0 14 1.0
 6 15 1.0 16 1.0
 7
 8
 9
 10
 11
 12
 13
 14
 15
 16 17 1.0 18 1.0 19 1.0
 17
 18
 19

