# opt dreiding

2-methylcyclohexanone-ax

0 1
 C                  0.20612903   -1.43727419   -0.52698387
 C                  1.62312903   -0.85127419   -0.53798387
 C                  1.58612903    0.67572581   -0.69298387
 C                 -0.67687097   -0.75327419    0.50201613
 C                  0.77012903    1.31572581    0.43801613
 C                 -0.66487097    0.76972581    0.52101613
 H                  0.24612903   -2.53327419   -0.32298387
 H                 -0.26987097   -1.30227419   -1.52598387
 H                  2.21612903   -1.30627419   -1.36698387
 H                  2.13912903   -1.11427419    0.41701613
 H                  1.14812903    0.94372581   -1.68298387
 H                  2.62712903    1.07972581   -0.68298387
 H                  0.75212903    2.42472581    0.31901613
 H                  1.29012903    1.10972581    1.40501613
 H                 -1.10087097    1.09172581    1.49901613
 C                 -1.57387097    1.32872581   -0.58598387
 O                 -1.40187097   -1.38927419    1.23301613
 H                 -2.61587097    0.94872581   -0.47798387
 H                 -1.61887097    2.44172581   -0.54598387
 H                 -1.21787097    1.04172581   -1.60098387

 1 2 1.0 4 1.0 7 1.0 8 1.0
 2 3 1.0 9 1.0 10 1.0
 3 5 1.0 11 1.0 12 1.0
 4 6 1.0 17 2.0
 5 6 1.0 13 1.0 14 1.0
 6 15 1.0 16 1.0
 7
 8
 9
 10
 11
 12
 13
 14
 15
 16 18 1.0 19 1.0 20 1.0
 17
 18
 19
 20

