# opt dreiding

2-methylcyclohexanone-eq

0 1
 C                  0.16256452   -1.43364516   -0.87714516
 C                  1.58256452   -0.85464516   -0.90114516
 C                  1.54956452    0.67435484   -1.02514516
 C                 -0.68243548   -0.76164516    0.19185484
 C                  0.74756452    1.30035484    0.12585484
 C                 -0.69143548    0.76135484    0.17385484
 H                  0.19756452   -2.53464516   -0.70014516
 H                 -0.33643548   -1.26664516   -1.86014516
 H                  2.15756452   -1.29564516   -1.75114516
 H                  2.11456452   -1.13864516    0.03785484
 H                  1.09056452    0.96135484   -2.00114516
 H                  2.59156452    1.07635484   -1.02314516
 H                  0.73356452    2.41135484    0.00985484
 H                  1.25756452    1.07835484    1.09285484
 H                 -1.21143548    1.04735484   -0.77214516
 C                 -1.47043548    1.36935484    1.34985484
 O                 -1.34443548   -1.40864516    0.97085484
 H                 -1.48543548    2.48135484    1.28885484
 H                 -2.53143548    1.02535484    1.35785484
 H                 -1.01043548    1.09035484    2.32585484

 1 2 1.0 4 1.0 7 1.0 8 1.0
 2 3 1.0 9 1.0 10 1.0
 3 5 1.0 11 1.0 12 1.0
 4 6 1.0 17 2.0
 5 6 1.0 13 1.0 14 1.0
 6 15 1.0 16 1.0
 7
 8
 9
 10
 11
 12
 13
 14
 15
 16 18 1.0 19 1.0 20 1.0
 17
 18
 19
 20

