# opt dreiding

2-propanol-g

0 1
 C                  0.22111765   -1.41223529   -0.28300000
 C                  0.22111765    0.12776471   -0.28300000
 C                 -1.23088235    0.64176471   -0.28300000
 O                  0.89511765    0.60476471    0.88500000
 H                  1.24811765   -1.77523529   -0.28300000
 H                 -0.29288235   -1.77523529    0.60700000
 H                 -0.29288235   -1.77523529   -1.17300000
 H                  0.73411765    0.49176471   -1.17300000
 H                 -1.23088235    1.73176471   -0.28300000
 H                 -1.74488235    0.27776471   -1.17300000
 H                 -1.74488235    0.27776471    0.60700000
 H                  0.89511765    1.56476471    0.88500000

 1 2 1.0 5 1.0 6 1.0 7 1.0
 2 3 1.0 4 1.0 8 1.0
 3 9 1.0 10 1.0 11 1.0
 4 12 1.0
 5
 6
 7
 8
 9
 10
 11
 12

