# opt dreiding

3-Me THP-ax

0 1
 C                 -1.09280357   -0.91366071   -0.98633929
 C                 -0.42680357   -1.50566071    0.26266071
 C                  0.99019643   -0.94366071    0.42366071
 O                 -1.09980357    0.50233929   -0.92733929
 C                  0.97419643    0.59133929    0.35566071
 C                  0.21319643    1.03733929   -0.90433929
 H                 -2.15580357   -1.25166071   -1.05233929
 H                 -0.57580357   -1.24366071   -1.92033929
 H                 -0.39080357   -2.61966071    0.18366071
 H                 -1.03980357   -1.26766071    1.16366071
 H                  1.62719643   -1.33866071   -0.40333929
 H                  1.44719643   -1.29366071    1.37966071
 H                  2.03119643    0.94733929    0.27166071
 H                  0.75019643    0.72833929   -1.83333929
 C                  0.38719643    1.22833929    1.62666071
 H                 -0.68480357    0.96833929    1.77266071
 H                  0.45419643    2.34033929    1.58366071
 H                  0.94219643    0.89733929    2.53466071
 H                  0.12219643    2.15033929   -0.92933929

 1 2 1.0 4 1.0 7 1.0 8 1.0
 2 3 1.0 9 1.0 10 1.0
 3 5 1.0 11 1.0 12 1.0
 4 6 1.0
 5 6 1.0 13 1.0 15 1.0
 6 14 1.0 19 1.0
 7
 8
 9
 10
 11
 12
 13
 14
 15 16 1.0 17 1.0 18 1.0
 16
 17
 18
 19

