# opt dreiding

4-Me THP-eq

0 1
 C                  0.58232143    1.10446429    2.13528571
 H                  0.58732143    2.21946429    2.15528571
 H                  1.63932143    0.75846429    2.18728571
 H                  0.06232143    0.75346429    3.05628571
 C                 -0.77267857   -1.45253571   -0.46871429
 C                 -0.14767857   -0.95653571    0.84328571
 C                 -0.11667857    0.57846429    0.87328571
 O                 -0.05367857   -0.95553571   -1.58471429
 C                  0.57832143    1.07246429   -0.40471429
 C                 -0.08667857    0.46046429   -1.64571429
 H                 -1.84467857   -1.14953571   -0.55171429
 H                 -0.73167857   -2.56853571   -0.51571429
 H                  0.88932143   -1.35653571    0.93228571
 H                 -0.73067857   -1.34653571    1.71128571
 H                 -1.16967857    0.95446429    0.87128571
 H                  1.65532143    0.78346429   -0.38371429
 H                  0.46232143    0.76746429   -2.56771429
 H                 -1.14567857    0.80246429   -1.75271429
 H                  0.53432143    2.18546429   -0.46071429

 1 2 1.0 3 1.0 4 1.0 7 1.0
 2
 3
 4
 5 6 1.0 8 1.0 11 1.0 12 1.0
 6 7 1.0 13 1.0 14 1.0
 7 9 1.0 15 1.0
 8 10 1.0
 9 10 1.0 16 1.0 19 1.0
 10 17 1.0 18 1.0
 11
 12
 13
 14
 15
 16
 17
 18
 19

