# opt dreiding

acetaldehyde dimethylacetal-g-g-

0 1
 C                  1.73508000   -0.46814000   -0.76700000
 O                  1.00308000   -0.48014000    0.44600000
 C                 -0.40992000   -0.41114000    0.29600000
 O                 -0.74792000    0.90886000   -0.11000000
 C                 -0.64692000    1.85886000    0.93700000
 H                  2.81508000   -0.36014000   -0.51100000
 H                  1.60908000   -1.43514000   -1.30800000
 H                  1.43608000    0.39386000   -1.40800000
 C                 -0.97092000   -1.42914000   -0.70900000
 H                 -0.86192000   -0.62014000    1.29900000
 H                 -0.91292000    2.85786000    0.51900000
 H                 -1.36692000    1.61186000    1.75300000
 H                  0.39508000    1.90386000    1.33000000
 H                 -0.61692000   -2.46014000   -0.47800000
 H                 -0.69692000   -1.18314000   -1.76000000
 H                 -2.08492000   -1.44114000   -0.66600000

 1 2 1.0 6 1.0 7 1.0 8 1.0
 2 3 1.0
 3 4 1.0 9 1.0 10 1.0
 4 5 1.0
 5 11 1.0 12 1.0 13 1.0
 6
 7
 8
 9 14 1.0 15 1.0 16 1.0
 10
 11
 12
 13
 14
 15
 16

