# opt dreiding

C-Et glycoside-a

0 1
 C                 -1.11116346   -0.74291346    0.33239423
 C                 -1.16716346    0.79508654    0.30839423
 C                  0.24683654    1.38608654    0.34639423
 O                 -0.30616346   -1.23491346   -0.73060577
 C                  1.08683654    0.74308654   -0.76360577
 C                  1.04683654   -0.79491346   -0.69060577
 C                 -2.50416346   -1.39091346    0.22139423
 H                 -0.66716346   -1.08091346    1.30039423
 O                 -1.88316346    1.27708654    1.42439423
 H                 -1.69516346    1.15008654   -0.60960577
 H                  0.70783654    1.21808654    1.34939423
 O                  0.18483654    2.77908654    0.13439423
 O                  2.40783654    1.22308654   -0.67560577
 H                  0.68783654    1.07308654   -1.75560577
 H                  1.50283654   -1.18991346   -1.63160577
 C                  1.80983654   -1.45191346    0.48039423
 H                  1.40183654   -2.47791346    0.64839423
 C                  3.31883654   -1.60891346    0.23639423
 H                  1.65383654   -0.88391346    1.42639423
 O                 -3.14316346   -0.98591346   -0.96760577
 H                 -2.43016346   -2.50491346    0.20639423
 H                 -1.58316346    0.81308654    2.18739423
 H                 -0.41316346    3.13708654    0.76639423
 H                  2.37283654    2.15608654   -0.80360577
 H                  3.80383654   -2.14391346    1.08639423
 H                  3.52183654   -2.19891346   -0.68660577
 H                  3.83383654   -0.62791346    0.13639423
 H                 -3.97916346   -1.41691346   -1.00360577
 H                 -3.16016346   -1.09791346    1.07639423

 1 2 1.0 4 1.0 7 1.0 8 1.0
 2 3 1.0 9 1.0 10 1.0
 3 5 1.0 11 1.0 12 1.0
 4 6 1.0
 5 6 1.0 13 1.0 14 1.0
 6 15 1.0 16 1.0
 7 20 1.0 21 1.0 29 1.0
 8
 9 22 1.0
 10
 11
 12 23 1.0
 13 24 1.0
 14
 15
 16 17 1.0 18 1.0 19 1.0
 17
 18 25 1.0 26 1.0 27 1.0
 19
 20 28 1.0
 21
 22
 23
 24
 25
 26
 27
 28
 29

