# opt dreiding

cyclohexanone-chair

0 1
 C                 -1.05761111   -0.52253704    0.73033333
 C                 -1.02061111    1.00946296    0.79733333
 C                  0.42438889    1.52946296    0.81133333
 C                 -0.21561111   -1.04353704   -0.42066667
 C                  1.19038889    1.04646296   -0.42866667
 C                  1.19238889   -0.48453704   -0.51766667
 H                 -2.10961111   -0.88053704    0.62633333
 H                 -0.64561111   -0.95453704    1.67233333
 H                 -1.56261111    1.36346296    1.70733333
 H                 -1.55561111    1.43146296   -0.08766667
 H                  0.94138889    1.17146296    1.73333333
 H                  0.42538889    2.64546296    0.84633333
 H                  2.24038889    1.42646296   -0.40166667
 H                  0.71238889    1.46846296   -1.34566667
 H                  1.78438889   -0.91453704    0.32433333
 H                  1.67038889   -0.81753704   -1.46966667
 O                 -0.62261111   -1.89353704   -1.17966667

 1 2 1.0 4 1.0 7 1.0 8 1.0
 2 3 1.0 9 1.0 10 1.0
 3 5 1.0 11 1.0 12 1.0
 4 6 1.0 17 2.0
 5 6 1.0 13 1.0 14 1.0
 6 15 1.0 16 1.0
 7
 8
 9
 10
 11
 12
 13
 14
 15
 16
 17

