# opt dreiding

ethanol-a

0 1
 H                 -0.96330769   -1.64780769    0.45946154
 O                 -0.91630769   -0.80680769    0.03746154
 C                  0.36269231   -0.27580769    0.29746154
 H                  1.12069231   -0.99180769   -0.10253846
 C                  0.48969231    1.09719231   -0.36953846
 H                  0.48569231   -0.20080769    1.40446154
 H                 -0.27630769    1.80619231    0.02346154
 H                  0.35469231    1.02019231   -1.47353846
 H                  1.49469231    1.54019231   -0.17853846

 1 2 1.0
 2 3 1.0
 3 4 1.0 5 1.0 6 1.0
 4
 5 7 1.0 8 1.0 9 1.0
 6
 7
 8
 9

