# opt dreiding

formic acid-Z

0 1
 H                 -0.07341667   -1.51825000    0.00000000
 C                  0.08658333   -0.41625000    0.00000000
 O                  1.14758333    0.15475000    0.00000000
 O                 -1.09041667    0.20275000    0.00000000
 H                 -0.90341667    1.15575000    0.00000000

 1 2 1.0
 2 3 2.0 4 1.5
 3
 4 5 1.0
 5

