# opt dreiding

formic acid-E

0 1
 H                 -0.02508333   -1.44629167    0.00025000
 C                  0.12391667   -0.34329167    0.00025000
 O                  1.18891667    0.22370833   -0.00175000
 O                 -1.05908333    0.26570833    0.00125000
 H                 -1.75708333   -0.40929167    0.00225000

 1 2 1.0
 2 3 2.0 4 1.5
 3
 4 5 1.0
 5

