# opt dreiding

formaldehyde dimethylacetal-ag

0 1
 C                  1.88007143   -0.11357143    0.85311905
 O                  1.15907143   -0.80457143   -0.15188095
 C                 -0.24692857   -0.64857143   -0.01388095
 O                 -0.60592857    0.66342857   -0.41988095
 C                 -2.00992857    0.84042857   -0.45488095
 H                  2.96807143   -0.27557143    0.66811905
 H                  1.66707143    0.98042857    0.80411905
 H                  1.62407143   -0.51957143    1.86111905
 H                 -0.72692857   -1.39157143   -0.69888095
 H                 -0.56592857   -0.84357143    1.04011905
 H                 -2.21792857    1.89442857   -0.75388095
 H                 -2.46692857    0.15642857   -1.20888095
 H                 -2.44592857    0.65842857    0.55611905

 1 2 1.0 6 1.0 7 1.0 8 1.0
 2 3 1.0
 3 4 1.0 9 1.0 10 1.0
 4 5 1.0
 5 11 1.0 12 1.0 13 1.0
 6
 7
 8
 9
 10
 11
 12
 13

