# opt dreiding

formaldehyde dimethylacetal-aa

0 1
 C                  1.62723810   -1.67521429    0.30419048
 O                  1.20423810   -0.35221429    0.02219048
 C                 -0.21076190   -0.23221429    0.06319048
 O                 -0.50076190    1.12678571   -0.23380952
 C                 -1.89476190    1.38078571   -0.22380952
 H                  2.74123810   -1.69821429    0.25619048
 H                  1.30523810   -1.97221429    1.33019048
 H                  1.21823810   -2.38121429   -0.45580952
 H                 -0.66876190   -0.89421429   -0.71380952
 H                 -0.58076190   -0.48121429    1.09019048
 H                 -2.05076190    2.45878571   -0.46280952
 H                 -2.40476190    0.76078571   -0.99980952
 H                 -2.31776190    1.17078571    0.78719048

 1 2 1.0 6 1.0 7 1.0 8 1.0
 2 3 1.0
 3 4 1.0 9 1.0 10 1.0
 4 5 1.0
 5 11 1.0 12 1.0 13 1.0
 6
 7
 8
 9
 10
 11
 12
 13

