# opt dreiding

formaldehyde dimethylacetal-g ecl

0 1
 C                  1.50730952   -0.60807143    0.82697619
 O                  0.93430952   -0.97807143   -0.41302381
 C                 -0.44169048   -0.63507143   -0.51102381
 O                 -0.60369048    0.76792857   -0.67602381
 C                 -1.29769048    1.37092857    0.40297619
 H                  2.56030952   -0.97707143    0.84197619
 H                  1.52330952    0.50192857    0.93097619
 H                  0.95130952   -1.07907143    1.67097619
 H                 -0.83269048   -1.12707143   -1.43702381
 H                 -1.01369048   -1.04107143    0.35997619
 H                 -1.34469048    2.46892857    0.21197619
 H                 -2.33769048    0.97192857    0.45597619
 H                 -0.75869048    1.19592857    1.36397619

 1 2 1.0 6 1.0 7 1.0 8 1.0
 2 3 1.0
 3 4 1.0 9 1.0 10 1.0
 4 5 1.0
 5 11 1.0 12 1.0 13 1.0
 6
 7
 8
 9
 10
 11
 12
 13

