#p Opt=(Modredun,nomicro) dreiding

glycolic acid-skew

0 1
 C                 -0.24237500   -0.51447500   -0.22150000
 C                 -0.17337500    1.00152500   -0.21150000
 O                  0.98262500   -1.06747500   -0.13150000
 O                 -1.23937500   -1.17547500   -0.39350000
 O                  0.50762500    1.47852500    0.92650000
 H                  0.35962500    1.36852500   -1.12050000
 H                 -1.20137500    1.43452500   -0.19850000
 H                  0.87162500   -2.02847500   -0.22350000
 H                  0.45762500    2.41852500    0.92850000

4 1 3 8 0.0 F