# opt dreiding

isopropanol-a

0 1
 C                 -0.25788235   -1.37717647    0.29726471
 C                 -0.22088235    0.15682353    0.29926471
 C                  1.21611765    0.69682353    0.29626471
 O                 -0.89788235    0.63782353   -0.84173529
 H                 -1.30688235   -1.75417647    0.30026471
 H                  0.25011765   -1.78817647   -0.60573529
 H                  0.25311765   -1.79017647    1.19726471
 H                 -0.76888235    0.54682353    1.19426471
 H                  1.22711765    1.81082353    0.29926471
 H                  1.77411765    0.34982353    1.19626471
 H                  1.77011765    0.35182353   -0.60673529
 H                 -0.43988235    0.31182353   -1.59773529

 1 2 1.0 5 1.0 6 1.0 7 1.0
 2 3 1.0 4 1.0 8 1.0
 3 9 1.0 10 1.0 11 1.0
 4 12 1.0
 5
 6
 7
 8
 9
 10
 11
 12

