# opt dreiding

Me acetate-Z-lp

0 1
 C                 -1.47577500   -1.14275000   -0.04425000
 C                 -0.11477500   -0.47775000    0.00075000
 O                  0.94022500   -1.06875000    0.04475000
 O                 -0.24877500    0.87525000   -0.01725000
 C                  0.95222500    1.62125000    0.01975000
 H                  0.68522500    2.70425000    0.00075000
 H                  1.50922500    1.40425000    0.96275000
 H                  1.57622500    1.38725000   -0.87525000
 H                 -2.08477500   -0.84175000    0.83875000
 H                 -2.01777500   -0.85875000   -0.97525000
 H                 -1.36977500   -2.25175000   -0.02925000

 1 2 1.0 9 1.0 10 1.0 11 1.0
 2 3 2.0 4 1.0
 3
 4 5 1.0
 5 6 1.0 7 1.0 8 1.0
 6
 7
 8
 9
 10
 11

