# opt dreiding

Me formate-Z-lp

0 1
 C                 -0.58681250   -0.69228125    0.24184375
 O                  0.26618750   -1.45228125   -0.15315625
 O                 -0.51281250    0.66571875    0.24284375
 C                  0.68218750    1.21971875   -0.27115625
 H                  0.60218750    2.33071875   -0.20815625
 H                  1.55418750    0.88571875    0.34084375
 H                  0.81218750    0.92771875   -1.34015625
 H                 -1.56781250   -1.01628125    0.66584375

 1 2 2.0 3 1.0 8 1.0
 2
 3 4 1.0
 4 5 1.0 6 1.0 7 1.0
 5
 6
 7
 8

