# opt dreiding

Me formate-E-lp

0 1
 C                  0.10803125   -0.74390625   -0.04812500
 O                  1.01803125   -1.50990625   -0.27312500
 O                  0.21403125    0.61209375   -0.02712500
 C                 -0.96396875    1.34509375    0.25587500
 H                 -0.70696875    2.43009375    0.23487500
 H                 -1.73796875    1.14309375   -0.52212500
 H                 -1.34296875    1.08409375    1.27287500
 H                 -0.93296875   -1.08190625    0.16987500

 1 2 2.0 3 1.0 8 1.0
 2
 3 4 1.0
 4 5 1.0 6 1.0 7 1.0
 5
 6
 7
 8

