# opt dreiding

Me formate-E

0 1
 H                  0.52000000   -1.35068750    0.03175000
 C                  0.70900000   -0.25368750   -0.01225000
 O                  1.80800000    0.24231250   -0.06325000
 O                 -0.43100000    0.45631250   -0.00225000
 C                 -1.64800000   -0.24868750    0.05775000
 H                 -2.46100000    0.51131250    0.05575000
 H                 -1.74800000   -0.89968750   -0.84125000
 H                 -1.69300000   -0.83568750    1.00475000

 1 2 1.0
 2 3 2.0 4 1.5
 3
 4 5 1.0
 5 6 1.0 7 1.0 8 1.0
 6
 7
 8

