# opt dreiding

me-vinyl ether-g

0 1
 C                  0.69259375   -1.69434375    0.28109375
 C                  0.61959375   -0.37934375    0.03409375
 O                 -0.42140625    0.41965625    0.41609375
 C                 -0.78440625    1.41165625   -0.52590625
 H                  1.54959375   -2.29634375   -0.06490625
 H                 -0.10540625   -2.20934375    0.83909375
 H                  1.43259375    0.09565625   -0.54590625
 H                 -1.67040625    1.95965625   -0.12890625
 H                  0.05459375    2.13365625   -0.66690625
 H                 -1.05640625    0.93165625   -1.49690625

 1 2 2.0 5 1.0 6 1.0
 2 3 1.0 7 1.0
 3 4 1.0
 4 8 1.0 9 1.0 10 1.0
 5
 6
 7
 8
 9
 10

