# opt dreiding

me-vinyl ether-s-cis

0 1
 C                  0.97909375   -1.22084375   -0.16021875
 C                  0.76609375    0.05115625   -0.53521875
 O                 -0.26090625    0.88315625   -0.18421875
 C                 -1.24890625    0.37015625    0.68778125
 H                  1.86009375   -1.77284375   -0.52721875
 H                  0.30209375   -1.76584375    0.51578125
 H                  1.50709375    0.50515625   -1.21821875
 H                 -2.00090625    1.17415625    0.86578125
 H                 -1.76690625   -0.49984375    0.21578125
 H                 -0.79190625    0.09115625    1.66778125

 1 2 2.0 5 1.0 6 1.0
 2 3 1.0 7 1.0
 3 4 1.0
 4 8 1.0 9 1.0 10 1.0
 5
 6
 7
 8
 9
 10

