# opt dreiding

O-Me glycoside-a

0 1
 C                 -1.39271154   -0.40553846   -0.24435577
 C                 -1.03471154    1.06046154    0.03164423
 C                  0.48828846    1.26646154   -0.06635577
 C                 -0.59071154   -1.26553846    0.73664423
 O                  1.18028846    0.37946154    0.80564423
 C                  0.91928846   -1.00353846    0.57764423
 O                  1.47328846   -1.25153846   -0.70935577
 C                  1.38928846   -2.59653846   -1.13835577
 O                 -1.69571154    1.87446154   -0.91135577
 O                 -2.77371154   -0.60053846   -0.03835577
 O                 -0.91271154   -2.62753846    0.58364423
 H                 -1.61471154   -2.82653846    1.17964423
 H                 -2.62071154    1.73546154   -0.79735577
 H                 -3.04771154   -1.29553846   -0.61135577
 H                 -1.16771154   -0.68153846   -1.30235577
 H                 -1.39771154    1.36046154    1.04464423
 H                  0.82428846    1.08746154   -1.11735577
 H                 -0.87971154   -1.00353846    1.78464423
 H                  1.50628846   -1.57853846    1.33864423
 H                  2.07028846   -2.71653846   -2.01335577
 H                  1.72128846   -3.29053846   -0.33135577
 H                  0.35628846   -2.83153846   -1.48335577
 C                  0.89328846    2.69946154    0.32464423
 O                  2.28828846    2.84646154    0.17364423
 H                  2.69928846    2.17146154    0.68664423
 H                  0.63728846    2.91146154    1.39064423
 H                  0.40328846    3.46046154   -0.32835577

 1 2 1.0 4 1.0 10 1.0 15 1.0
 2 3 1.0 9 1.0 16 1.0
 3 5 1.0 17 1.0 23 1.0
 4 6 1.0 11 1.0 18 1.0
 5 6 1.0
 6 7 1.0 19 1.0
 7 8 1.0
 8 20 1.0 21 1.0 22 1.0
 9 13 1.0
 10 14 1.0
 11 12 1.0
 12
 13
 14
 15
 16
 17
 18
 19
 20
 21
 22
 23 24 1.0 26 1.0 27 1.0
 24 25 1.0
 25
 26
 27

