# opt dreiding

O-Me glycoside-g

0 1
 C                 -1.53666346   -0.48030769   -0.30559615
 C                 -1.16066346    0.98069231   -0.03259615
 C                  0.36533654    1.15769231   -0.10559615
 C                 -0.77466346   -1.36530769    0.68440385
 O                  1.01733654    0.27669231    0.80040385
 C                  0.74033654   -1.10230769    0.59440385
 O                  1.25833654   -1.48130769   -0.67359615
 C                  2.67433654   -1.53530769   -0.70659615
 O                 -1.78866346    1.79869231   -0.99459615
 O                 -2.92366346   -0.64430769   -0.12159615
 O                 -1.06866346   -2.71830769    0.41840385
 H                 -2.71166346    1.61169231   -0.96059615
 H                 -3.13166346   -1.53330769   -0.35559615
 H                 -0.83366346   -3.22830769    1.17440385
 H                 -1.29566346   -0.76730769   -1.35859615
 H                 -1.53766346    1.29169231    0.97240385
 H                  0.72133654    0.94769231   -1.14359615
 H                 -1.12166346   -1.15730769    1.72640385
 H                  1.25833654   -1.68630769    1.39640385
 H                  2.98033654   -1.84430769   -1.73359615
 H                  3.11333654   -0.53330769   -0.49259615
 H                  3.04933654   -2.29430769    0.02040385
 C                  0.79033654    2.59069231    0.26140385
 O                  2.19433654    2.69969231    0.16640385
 H                  2.56233654    2.08569231    0.77940385
 H                  0.49733654    2.84169231    1.30840385
 H                  0.34733654    3.34169231   -0.43559615

 1 2 1.0 4 1.0 10 1.0 15 1.0
 2 3 1.0 9 1.0 16 1.0
 3 5 1.0 17 1.0 23 1.0
 4 6 1.0 11 1.0 18 1.0
 5 6 1.0
 6 7 1.0 19 1.0
 7 8 1.0
 8 20 1.0 21 1.0 22 1.0
 9 12 1.0
 10 13 1.0
 11 14 1.0
 12
 13
 14
 15
 16
 17
 18
 19
 20
 21
 22
 23 24 1.0 26 1.0 27 1.0
 24 25 1.0
 25
 26
 27

