# opt dreiding

propen-3-ol-sk-a

0 1
 C                  1.40225000   -0.87865625    0.81381250
 C                  0.79125000   -0.20065625   -0.16718750
 C                 -0.41075000    0.68134375    0.04581250
 O                 -1.50775000    0.22134375   -0.71218750
 H                  2.28025000   -1.51265625    0.60481250
 H                  1.04925000   -0.82465625    1.85581250
 H                  1.17425000   -0.28265625   -1.19918750
 H                 -0.72775000    0.70934375    1.11481250
 H                 -0.18075000    1.72334375   -0.28118750
 H                 -2.22975000    0.80434375   -0.55218750

 1 2 2.0 5 1.0 6 1.0
 2 3 1.0 7 1.0
 3 4 1.0 8 1.0 9 1.0
 4 10 1.0
 5
 6
 7
 8
 9
 10

