# opt dreiding

propen-3-ol-sk-g+

0 1
 C                  1.37906250   -0.83781250    0.81140625
 C                  0.77306250   -0.15681250   -0.17059375
 C                 -0.42393750    0.73318750    0.03840625
 O                 -1.52393750    0.26918750   -0.71159375
 H                  2.25306250   -1.47681250    0.60440625
 H                  1.02506250   -0.78081250    1.85240625
 H                  1.15906250   -0.24181250   -1.20159375
 H                 -0.73293750    0.76318750    1.11040625
 H                 -0.19193750    1.77218750   -0.29759375
 H                 -1.68993750   -0.62081250   -0.45059375

 1 2 2.0 5 1.0 6 1.0
 2 3 1.0 7 1.0
 3 4 1.0 8 1.0 9 1.0
 4 10 1.0
 5
 6
 7
 8
 9
 10

