# opt dreiding

propen-3-ol-syn-a

0 1
 C                  1.06312500   -1.21025000    0.23518750
 C                  0.91212500   -0.02525000   -0.37281250
 C                 -0.33487500    0.81975000   -0.32281250
 O                 -1.36687500    0.24175000    0.44318750
 H                  2.00812500   -1.77125000    0.15218750
 H                  0.25912500   -1.66625000    0.83518750
 H                  1.75512500    0.37875000   -0.95981250
 H                 -0.09987500    1.81475000    0.12418750
 H                 -0.72787500    0.97475000   -1.35581250
 H                 -2.10187500    0.82975000    0.42118750

 1 2 2.0 5 1.0 6 1.0
 2 3 1.0 7 1.0
 3 4 1.0 8 1.0 9 1.0
 4 10 1.0
 5
 6
 7
 8
 9
 10

