#p Opt=(Modredun,nomicro) dreiding

tgctgr180180

0 1
 C                 -3.52371100    0.22272500   -0.01002400
 H                 -4.12972300   -0.24078200    0.78534000
 O                 -4.34945900    1.02123200   -0.85550100
 C                 -2.84549200   -0.88620500   -0.80000800
 C                 -2.46822400    1.12013600    0.64506500
 C                 -3.07694400    2.19373900    1.55101200
 H                 -1.87376700    1.61296300   -0.13277300
 O                 -1.62059500    0.30379900    1.47575700
 O                 -3.87195400   -1.71597600   -1.33251500
 C                 -1.90172400   -1.66648800    0.10784400
 H                 -2.25901900   -0.43174300   -1.61253700
 H                 -2.49988500   -2.12569400    0.91157900
 C                 -0.91379700   -0.70664900    0.80930200
 O                 -1.29451500   -2.67009400   -0.69271000
 O                 -0.00281700   -0.05643800   -0.08204400
 H                 -0.35924700   -1.23843400    1.58666600
 C                  0.92988900   -0.75778800   -0.89344100
 H                  0.41401700   -1.30826400   -1.68330800
 O                  1.70698400    0.21819200   -1.54666800
 C                  1.88747000   -1.69276200   -0.12733100
 C                  2.48828600    1.05842400   -0.68060500
 O                  1.18255000   -2.74350600    0.53645300
 C                  2.72507300   -0.89470700    0.85969200
 H                  2.55787400   -2.12688200   -0.88357600
 H                  2.06610700   -0.41967800    1.60102500
 O                  3.59839700   -1.82126500    1.49721600
 H                  1.83627000    1.60060600    0.01381900
 C                  3.17419000    2.04516100   -1.62080500
 C                  3.48344700    0.20967100    0.13220400
 O                  4.16307000    0.95460600    1.12874300
 H                  4.19632100   -0.26190800   -0.56661700
 H                 -3.74136100    1.70909500    2.28640600
 O                 -3.73919500    3.19852400    0.80865600
 H                 -2.26896200    2.67638600    2.10929500
 O                  4.02352400    2.88277400   -0.82990000
 H                  2.41167900    2.63222000   -2.14833600
 H                  3.75147600    1.48069300   -2.36710000
 H                 -4.32614300    2.74315000    0.18429400
 H                  4.52072900    3.46366300   -1.41812300
 H                 -0.55225200   -3.05772300   -0.19611000
 H                 -3.42887000   -2.47105200   -1.74518100
 H                 -4.91350800    0.40674000   -1.34745500
 H                  1.81789000   -3.14595800    1.14895000
 H                  4.17029200   -1.30347600    2.08186600
 H                  4.49138200    1.75975100    0.69453500

 19 17 15 13 -176.0 F
 17 15 13 8 177.0 F

 

