# opt dreiding

THP-SMeax

0 1
 C                 -0.85280556   -1.23069444   -1.80477778
 C                 -0.97780556    0.29530556   -1.86777778
 C                  0.34819444    0.91730556   -1.41277778
 C                 -0.39180556   -1.66169444   -0.40677778
 C                  0.80519444    0.36330556   -0.05177778
 O                  0.84619444   -1.05769444   -0.07377778
 S                 -0.21780556    1.05930556    1.29822222
 C                  0.63719444    0.29830556    2.70722222
 H                 -0.11380556   -1.58069444   -2.56577778
 H                 -1.83180556   -1.70769444   -2.05077778
 H                 -1.80980556    0.63330556   -1.20677778
 H                 -1.22980556    0.62330556   -2.90477778
 H                  0.27019444    2.03130556   -1.38977778
 H                  1.12719444    0.67430556   -2.17477778
 H                 -0.23580556   -2.76769444   -0.38177778
 H                 -1.15680556   -1.41969444    0.36922222
 H                  1.85719444    0.70130556    0.11722222
 H                  1.71419444    0.58130556    2.70522222
 H                  0.17319444    0.66230556    3.65122222
 H                  0.54219444   -0.80969444    2.67022222

 1 2 1.0 4 1.0 9 1.0 10 1.0
 2 3 1.0 11 1.0 12 1.0
 3 5 1.0 13 1.0 14 1.0
 4 6 1.0 15 1.0 16 1.0
 5 6 1.0 7 1.0 17 1.0
 6
 7 8 1.0
 8 18 1.0 19 1.0 20 1.0
 9
 10
 11
 12
 13
 14
 15
 16
 17
 18
 19
 20

