# opt dreiding

THP-Fax

0 1
 C                 -0.90950000   -0.98932143   -1.05237500
 C                 -0.95850000    0.54067857   -1.13237500
 C                  0.42750000    1.09967857   -0.78837500
 C                 -0.35650000   -1.43332143    0.30862500
 C                  0.91350000    0.54067857    0.55762500
 O                  0.93050000   -0.88232143    0.52862500
 F                  0.08950000    1.03167857    1.57362500
 H                 -0.25550000   -1.38632143   -1.86637500
 H                 -1.92950000   -1.41532143   -1.21037500
 H                 -1.71350000    0.92967857   -0.40937500
 H                 -1.27250000    0.87067857   -2.15137500
 H                  0.39750000    2.21567857   -0.75337500
 H                  1.15150000    0.81467857   -1.58937500
 H                 -0.25050000   -2.54432143    0.33662500
 H                 -1.03750000   -1.13932143    1.14362500
 H                  1.96150000    0.87767857    0.74962500

 1 2 1.0 4 1.0 8 1.0 9 1.0
 2 3 1.0 10 1.0 11 1.0
 3 5 1.0 12 1.0 13 1.0
 4 6 1.0 14 1.0 15 1.0
 5 6 1.0 7 1.0 16 1.0
 6
 7
 8
 9
 10
 11
 12
 13
 14
 15
 16

