# opt dreiding

THP-Feq

0 1
 C                 -1.22071429   -0.98944643   -0.93639286
 C                 -1.26571429    0.54155357   -1.01439286
 C                  0.12328571    1.09755357   -0.67739286
 C                 -0.66671429   -1.43144643    0.42560714
 C                  0.60428571    0.53855357    0.66960714
 O                  0.62228571   -0.88444643    0.64260714
 F                  1.89128571    1.03355357    0.90160714
 H                 -0.56971429   -1.38744643   -1.75039286
 H                 -2.24171429   -1.41244643   -1.09039286
 H                 -2.01371429    0.93255357   -0.28339286
 H                 -1.58571429    0.87355357   -2.03139286
 H                  0.09128571    2.21255357   -0.64139286
 H                  0.84628571    0.80955357   -1.47839286
 H                 -0.56571429   -2.54344643    0.45760714
 H                 -1.34471429   -1.12844643    1.26060714
 H                 -0.06271429    0.87655357    1.49960714

 1 2 1.0 4 1.0 8 1.0 9 1.0
 2 3 1.0 10 1.0 11 1.0
 3 5 1.0 12 1.0 13 1.0
 4 6 1.0 14 1.0 15 1.0
 5 6 1.0 7 1.0 16 1.0
 6
 7
 8
 9
 10
 11
 12
 13
 14
 15
 16

