# opt dreiding

vinyl alcohol s-trans

0 1
 C                  0.37408333   -1.18412500    0.16079167
 C                  0.33708333    0.11287500   -0.17320833
 O                 -0.71891667    0.93687500    0.05179167
 H                 -0.49991667    1.82387500   -0.28020833
 H                  1.26208333   -1.80412500   -0.04720833
 H                 -0.48591667   -1.66412500    0.65479167
 H                  1.20808333    0.57687500   -0.66720833

 1 2 2.0 5 1.0 6 1.0
 2 3 1.0 7 1.0
 3 4 1.0
 4
 5
 6
 7

