$RunGaus
%mem=8000Mb
%nproc=8
%RWF=/media/S_/Gaussian_scratch/,140GB,/media/TOSHIBA\ EXT/,200GB,/home/scratch/stylianakis/,60GB,
%NoSave
# mp2/cc-pVTZ

2-(1-Ad)-N-Meax-pip-ecl.hin

0  1
C          -2.65787         0.14642        -1.50744
C          -3.08539         1.57232        -1.13531
C          -1.82170         2.42658        -0.96761
C          -1.77707        -0.44338        -0.39180
C          -0.93150         1.80926         0.12522
C          -0.46227         0.35168        -0.20239
C          -1.86402         0.16171        -2.82395
C           0.28819         0.50258        -1.54516
C          -0.62068         1.04970        -2.66028
C          -1.05328         2.47783        -2.29591
C           0.46251        -0.07907         1.00117
C           1.97451        -0.23985         0.73120
C           2.73050        -0.36093         2.06785
C           2.15613        -1.46753         2.96127
N           0.00184        -1.30406         1.66930
C           0.61734        -1.42875         2.98983
Xx         -0.59072        -1.24748         1.75451
H          -3.57300        -0.48463        -1.63528
H          -3.67782         1.56457        -0.18973
H          -3.74420         2.00134        -1.92711
H          -2.11637         3.46473        -0.67282
H          -1.59243        -1.49619        -0.68809
H          -2.35245        -0.47225         0.56314
H          -1.50240         1.82312         1.08445
H          -0.04705         2.47485         0.27077
H          -2.50442         0.54777        -3.65216
H          -1.56128        -0.87432        -3.10680
H           0.67034        -0.49936        -1.85002
H           1.16775         1.18002        -1.46011
H          -0.05402         1.07288        -3.62456
H          -1.69342         2.90989        -3.10123
H          -0.16181         3.14232        -2.20155
H           0.38065         0.73602         1.75749
H           2.37428         0.67300         0.23226
H           2.20658        -1.09596         0.05777
H           2.65181         0.60915         2.61551
H           3.81827        -0.53585         1.88568
H           2.55581        -1.36268         3.99881
H           2.52551        -2.45772         2.60785
H           0.22373        -2.33777         3.50531
H           0.28974        -0.56953         3.62320
C           0.22051        -2.53673         0.91324
H          -0.49183        -3.31976         1.26248
H           0.08720        -2.41116        -0.18080
H           1.24383        -2.95425         1.02100

