$RunGaus
%mem=8000Mb
%nproc=8
# mp2/cc-pVTZ

3,3-Dimethil-N-methylpyrrolidine-NI.hin

0  1
C           0.88510        -0.15285         0.42763
C           0.11467        -1.39093        -0.07872
C          -1.34139        -0.90775        -0.17772
C           0.13583         0.99522        -0.27778
N          -1.21118         0.50843        -0.37735
C          -2.32606         1.36785        -0.64791
H           0.23514        -2.28139         0.58170
H           0.47732        -1.66498        -1.09794
C           2.37430        -0.19156         0.05274
C           0.74436        -0.02579         1.95787
H          -1.89866        -1.08866         0.77086
H          -1.88383        -1.38531        -1.02712
H           0.52041         1.16089        -1.31070
H           0.18317         1.95131         0.29276
H          -2.06216         2.08995        -1.45345
H          -3.20920         0.77545        -0.97798
H          -2.59176         1.92777         0.27707
H           2.51941        -0.28518        -1.04758
H           2.88231        -1.05879         0.53281
H           2.89162         0.73876         0.38068
H           1.20160        -0.89918         2.47630
H          -0.31986         0.03632         2.27916
H           1.25585         0.89037         2.33173

