%mem=2000MB
%nprocshared=4
%rwf=/pub/tmp/
%NoSave
# mp2/cc-pVTZ

Adamantyl-CMe2Cl-ts

0 1
 C              
 C                  1            B1
 C                  2            B2    1            A1
 C                  1            B3    2            A2    3            D1    0
 C                  4            B4    1            A3    2            D2    0
 C                  3            B5    2            A4    1            D3    0
 C                  2            B6    1            A5    4            D4    0
 C                  7            B7    2            A6    1            D5    0
 C                  8            B8    7            A7    2            D6    0
 C                  4            B9    1            A8    2            D7    0
 C                  6           B10    3            A9    2            D8    0
 C                 11           B11    6           A10    3            D9    0
 C                 11           B12    6           A11    3           D10    0
 Cl                11           B13    6           A12    3           D11    0
 H                  1           B14    4           A13   10           D12    0
 H                  1           B15    4           A14   10           D13    0
 H                  2           B16    1           A15    4           D14    0
 H                  3           B17    2           A16    1           D15    0
 H                  3           B18    2           A17    1           D16    0
 H                  4           B19    1           A18    2           D17    0
 H                  5           B20    4           A19    1           D18    0
 H                  5           B21    4           A20    1           D19    0
 H                  7           B22    2           A21    1           D20    0
 H                  7           B23    2           A22    1           D21    0
 H                  8           B24    7           A23    2           D22    0
 H                  9           B25    8           A24    7           D23    0
 H                  9           B26    8           A25    7           D24    0
 H                 10           B27    4           A26    1           D25    0
 H                 10           B28    4           A27    1           D26    0
 H                 12           B29   11           A28    6           D27    0
 H                 12           B30   11           A29    6           D28    0
 H                 12           B31   11           A30    6           D29    0
 H                 13           B32   11           A31    6           D30    0
 H                 13           B33   11           A32    6           D31    0
 H                 13           B34   11           A33    6           D32    0

   B1             1.54006855
   B2             1.54373987
   B3             1.53994229
   B4             1.54465228
   B5             1.55603890
   B6             1.54006505
   B7             1.53994113
   B8             1.54465069
   B9             1.54018188
   B10            1.61662969
   B11            1.53584409
   B12            1.53582663
   B13            1.88857506
   B14            1.09828989
   B15            1.09832859
   B16            1.09777596
   B17            1.09488154
   B18            1.09487479
   B19            1.09800139
   B20            1.09663556
   B21            1.09560587
   B22            1.09832724
   B23            1.09829081
   B24            1.09800211
   B25            1.09561111
   B26            1.09663104
   B27            1.09821603
   B28            1.09862594
   B29            1.09260775
   B30            1.09118676
   B31            1.09505566
   B32            1.09260852
   B33            1.09505964
   B34            1.09118459
   A1           109.77547691
   A2           108.89353465
   A3           109.65073063
   A4           111.82328856
   A5           109.51883354
   A6           108.89220112
   A7           109.65125043
   A8           109.61320804
   A9           113.06502664
   A10          114.58300221
   A11          114.58509451
   A12          111.33677458
   A13          110.21218114
   A14          110.19286206
   A15          109.70778911
   A16          109.39174427
   A17          109.39134351
   A18          109.77513308
   A19          108.67557562
   A20          108.79407819
   A21          110.20116814
   A22          110.36714280
   A23          109.77525441
   A24          108.79460671
   A25          108.67513596
   A26          110.26283485
   A27          110.21563584
   A28          109.43449253
   A29          112.53485500
   A30          110.34654245
   A31          109.43459292
   A32          110.34432525
   A33          112.53649378
   D1           -59.90911044
   D2            59.86580558
   D3            60.21311078
   D4            60.68022581
   D5           -60.68097310
   D6           -59.86324765
   D7           -60.55887857
   D8           179.99927789
   D9           116.93572040
   D10         -116.97891226
   D11           -0.01684907
   D12           60.63847870
   D13          178.45979791
   D14         -178.85367235
   D15          -61.63500991
   D16         -177.93989034
   D17          178.84619096
   D18          177.82367236
   D19           61.62976348
   D20          178.34345291
   D21           60.42182380
   D22         -178.84416114
   D23          -61.62605365
   D24         -177.82039431
   D25          -60.71959011
   D26         -178.54747858
   D27         -177.95798907
   D28          -58.02288677
   D29           63.43106980
   D30          177.95813076
   D31          -63.43259063
   D32           58.02057508
