%mem=2000MB
%nprocshared=4
%rwf=/pub/tmp/
%NoSave
# mp2/cc-pVTZ

Adamantyl-CMe2Cl

0 1
 C                  2.13607100   -1.59154800    0.00031300
 C                  1.71754500   -0.80638400   -1.24882600
 C                  0.19310300   -0.61175200   -1.25322900
 C                  1.71761100   -0.80585000    1.24913600
 C                  0.19316700   -0.61122400    1.25352800
 C                 -0.27641100    0.16880500   -0.00000200
 C                  2.40932000    0.56285700   -1.25229400
 C                  1.98632000    1.34164900   -0.00031100
 C                  0.46004200    1.53654300   -0.00030700
 C                  2.40938700    0.56339200    1.25198300
 C                 -1.83110800    0.39418200   -0.00000100
 C                 -2.36049000    1.11268900    1.24499800
 C                 -2.36050800    1.11269800   -1.24499000
 Cl                -2.67866800   -1.25364100    0.00000000
 H                  3.21229100   -1.75419500    0.00032100
 H                  1.66655200   -2.57305800    0.00053600
 H                  1.99878400   -1.36075800   -2.14136300
 H                 -0.29683700   -1.57788400   -1.29374900
 H                 -0.08372900   -0.07661800   -2.15615000
 H                  1.99889600   -1.35984200    2.14189600
 H                 -0.08363500   -0.07571600    2.15623900
 H                 -0.29676100   -1.57734300    1.29447400
 H                  2.13933300    1.11739700   -2.14926200
 H                  3.49054400    0.44049900   -1.26987700
 H                  2.45902800    2.32144400   -0.00053300
 H                  0.18254400    2.11885900   -0.87367400
 H                  0.18260400    2.11921500    0.87283900
 H                  3.49061200    0.44104200    1.26955900
 H                  2.13944800    1.11831500    2.14872700
 H                 -3.43922000    1.18916900    1.18719500
 H                 -2.11578300    0.58971800    2.15820000
 H                 -1.95827500    2.11819400    1.29901500
 H                 -3.43922300    1.18931600   -1.18709900
 H                 -1.95817000    2.11815100   -1.29908200
 H                 -2.11594700    0.58966100   -2.15819100

