%Mem=105Gb
%NProcShared=24
# mp2/cc-pVTZ

bicyclooctyl-CMe2Cl

0 1
 C                 -2.31029500   -0.71748200   -1.14539300
 C                 -0.75740600   -0.80136500   -1.23985300
 C                 -2.71908400    0.21960900    0.00042800
 C                 -0.07507500   -0.14219800   -0.00331200
 C                 -1.99469900    1.56123200   -0.17936700
 C                 -0.45798600    1.36610100   -0.02562400
 C                 -2.26732200   -0.40564300    1.32794400
 C                 -0.75059100   -0.75460100    1.26272900
 C                  1.51785300   -0.39722000    0.00319200
 C                  2.04942500   -1.11732000   -1.24650200
 Cl                 2.47587500    1.23093900    0.00176200
 C                  2.05036000   -1.12954400    1.24299000
 H                 -2.73638700   -1.71399000   -0.97440500
 H                 -2.72633000   -0.35954900   -2.09446200
 H                 -0.41425600   -0.30035800   -2.15087900
 H                 -0.45933500   -1.84987900   -1.32783100
 H                 -3.80578100    0.36816300    0.00024600
 H                 -2.35787100    2.28788400    0.55704300
 H                 -2.23041900    1.97551800   -1.16762200
 H                 -0.10279800    1.83780600    0.89548400
 H                  0.06310800    1.86761400   -0.84398600
 H                 -2.85256600   -1.30805800    1.54147900
 H                 -2.46299700    0.29440800    2.14963100
 H                 -0.62320400   -1.84303000    1.25411600
 H                 -0.25703800   -0.38879100    2.16643500
 H                  3.13875500   -1.18033000   -1.19413000
 H                  1.65599500   -2.13801800   -1.29513000
 H                  1.78625300   -0.59870100   -2.16995400
 H                  3.13212200   -1.25517600    1.15339500
 H                  1.85252600   -0.58627100    2.16821000
 H                  1.59926000   -2.12461500    1.31901900

D 6 4 9 11 F
