$RunGaus
%mem=8000Mb
%nproc=8
# mp2/cc-pVTZ

butane-anti.hin

0  1
C           0.30488        -1.60253         0.00000
C           0.28452        -0.06823         0.00000
C          -1.14926         0.48442        -0.00000
C          -1.16962         2.01871         0.00000
H           1.35063        -1.98868         0.00000
H          -0.20712        -2.01142         0.90142
H          -0.20712        -2.01142        -0.90142
H           0.82934         0.30690         0.89923
H           0.82934         0.30690        -0.89922
H          -1.69407         0.10929        -0.89923
H          -1.69408         0.10928         0.89922
H          -2.21537         2.40486        -0.00000
H          -0.65763         2.42760         0.90143
H          -0.65762         2.42761        -0.90142

