$RunGaus
%mem=8000Mb
%nproc=8
# mp2/cc-pVTZ

butane-ecl.hin

0  1
C           0.41684        -1.63523         0.02062
C           0.27258        -0.10816        -0.01298
C          -1.16686         0.44770         0.01575
C          -2.29843        -0.58668         0.07482
H           1.49147        -1.93144        -0.00385
H          -0.01759        -2.06813         0.95048
H          -0.07119        -2.11303        -0.85932
H           0.84413         0.31139         0.84999
H           0.79160         0.26730        -0.92789
H          -1.27786         1.13082         0.89237
H          -1.33038         1.08676        -0.88552
H          -3.29335        -0.08368         0.09181
H          -2.28903        -1.25649        -0.81514
H          -2.23549        -1.21174         0.99466

