$RunGaus
%mem=8000Mb
%nproc=8
# mp2/cc-pVTZ

cyclohene half chair.hin

0  1
C          -1.81405        -1.08529         0.65882
C          -0.91656        -1.61342        -0.42911
C           0.02689        -0.87172        -1.02796
C          -1.79895         0.44872         0.71729
C          -0.35457         0.96056         0.65795
C           0.28456         0.57129        -0.68251
H          -1.47093        -1.51625         1.62872
H          -2.85810        -1.43690         0.48165
H          -1.04452        -2.66938        -0.72444
H           0.64315        -1.32013        -1.82659
H          -2.30370         0.80009         1.64931
H          -2.37004         0.86901        -0.14514
H           0.22515         0.51373         1.50105
H          -0.32357         2.06919         0.78785
H           1.38484         0.74974        -0.63158
H          -0.12357         1.20172        -1.50723

