# mp2/cc-pVTZ

cyclohexane_chair

0 1
 C                 -1.08566667   -0.76758333    0.64900000
 C                 -1.10466667    0.76741667    0.61500000
 C                 -0.35566667    1.29741667   -0.61500000
 C                  0.35533333   -1.29758333    0.61500000
 C                  1.10533333   -0.76758333   -0.61500000
 C                  1.08533333    0.76741667   -0.64900000
 H                 -1.60466667   -1.13458333    1.56700000
 H                 -1.64866667   -1.16558333   -0.22800000
 H                 -2.15966667    1.13441667    0.60600000
 H                 -0.62766667    1.16641667    1.54200000
 H                 -0.89066667    0.98041667   -1.54200000
 H                 -0.34966667    2.41441667   -0.60600000
 H                  0.89033333   -0.97958333    1.54200000
 H                  0.35033333   -2.41358333    0.60600000
 H                  2.15933333   -1.13458333   -0.60600000
 H                  0.62733333   -1.16558333   -1.54200000
 H                  1.64933333    1.16641667    0.22800000
 H                  1.60433333    1.13441667   -1.56700000

 1 2 1.0 4 1.0 7 1.0 8 1.0
 2 3 1.0 9 1.0 10 1.0
 3 6 1.0 11 1.0 12 1.0
 4 5 1.0 13 1.0 14 1.0
 5 6 1.0 15 1.0 16 1.0
 6 17 1.0 18 1.0
 7
 8
 9
 10
 11
 12
 13
 14
 15
 16
 17
 18

