$RunGaus
%mem=8000Mb
%nproc=8
# mp2/cc-pVTZ

cyclohexene-b.hin

0  1
C          -1.97253        -0.41186         0.34345
C          -1.53896         0.95871         0.90278
C          -0.05590         1.29524         0.68453
C           0.37594         0.89205        -0.69868
C          -0.84721        -1.20717        -0.33584
C          -0.00044        -0.29841        -1.18407
H          -2.77837        -0.24537        -0.41217
H          -2.43363        -1.03514         1.14692
H          -1.77905         1.03190         1.99074
H          -2.14710         1.75168         0.40336
H           0.58442         0.75468         1.42079
H           0.11163         2.38818         0.83630
H           1.03565         1.55994        -1.27865
H          -1.28280        -2.02197        -0.96193
H          -0.18813        -1.68781         0.42501
H           0.33963        -0.64141        -2.17622

