$RunGaus
%mem=8000Mb
%nproc=8
# mp2/cc-pVTZ

Dimethylether-ecl.hin

0  1
C          -0.73729        -0.94061         0.15252
O          -0.98125         0.32700        -0.40829
C          -2.18577         0.95039        -0.01968
H           0.23925        -1.29838        -0.24526
H          -0.67619        -0.84753         1.26136
H          -1.54542        -1.64255        -0.15753
H          -1.93051         1.92133         0.46258
H          -2.78831         1.13677        -0.93766
H          -2.76666         0.31816         0.69042
Xx         -0.33422         0.83797        -0.19914
Xx         -0.98107         0.24634        -1.25503

