%Mem=105Gb
%NProcShared=24
# opt=modredundant mp2/cc-pVTZ

diMe-sulfone-ts

0 1
 C                 -1.38649200    0.98177500   -0.00489800
 S                 -0.00777800   -0.19153200   -0.00012400
 C                  1.48263000    0.86541800    0.00803300
 O                 -0.05590700   -0.92317000    1.27901200
 O                 -0.03971500   -0.92080700   -1.28104100
 H                 -1.34391700    1.58676100   -0.91221300
 H                 -1.34004400    1.59716800    0.89531900
 H                  2.09503000    0.56014800   -0.84118900
 H                  1.19403000    1.91349300   -0.09773100
 H                  1.99959300    0.70352500    0.95419000
 H                 -2.29208700    0.37207300    0.00102300

D 5 2 3 8 F
