$RunGaus
%mem=8000Mb
%nproc=8
# mp2/cc-pVTZ

ethane-g.hin

0  1
C          -0.46013        -0.52155         0.00654
C          -0.45894         1.00997        -0.00653
H          -0.13232        -0.91267         0.99758
H          -1.47984        -0.92186        -0.19972
H           0.23084        -0.92804        -0.76800
H          -0.78672         1.40113        -0.99757
H          -1.14992         1.41648         0.76799
H           0.56076         1.41029         0.19975

