$RunGaus
%mem=8000Mb
%nproc=8
# mp2/cc-pVTZ

ethanethiol-ecl.hin

0  1
C          -0.43603        -1.27895        -0.31377
S          -0.36731         0.60677        -0.55914
Xx          0.78717         0.94436        -0.42814
Xx         -0.61339         0.82432        -1.72363
H          -1.11628         1.45421         0.16855
H          -1.47575        -1.63372        -0.50266
H           0.22737        -1.76569        -1.06579
C           0.01236        -1.63137         1.11351
H           0.28847        -0.74401         1.72764
H          -0.79423        -2.16765         1.66518
H           0.90020        -2.30525         1.10025

