$RunGaus
%mem=8000Mb
%nproc=8
# mp2/cc-pVTZ

ethanol-ecl.hin

0  1
C          -0.57992        -1.01942         0.02318
C          -0.53128         0.51285         0.10774
O          -1.51453         0.97776         1.00526
H          -1.45229         1.91748         1.02953
H           0.45898         0.87357         0.47694
H          -0.72982         0.98641        -0.88391
H           0.39046        -1.47199         0.33263
H          -1.37107        -1.45093         0.67855
H          -0.78874        -1.36009        -1.01728
Xx         -2.04688         0.90243         0.73604
Xx         -1.32858         0.83359         1.55861

