$RunGaus
%mem=8000Mb
%nproc=8
# mp2/cc-pVTZ

ethane-eclip.hin

0  1
C          -0.46014        -0.52304         0.00656
C          -0.45893         1.01148        -0.00655
H           0.57407        -0.93073         0.08888
H          -1.04602        -0.92283         0.86649
H          -0.90942        -0.93823        -0.92529
H          -0.90764         1.41141        -0.94532
H          -1.04412         1.42681         0.84646
H           0.57591         1.41890         0.06879

