$RunGaus
%mem=8000Mb
%nproc=8
# mp2/cc-pVTZ

ethilamine-ecl.hin

0  1
C           0.38988        -0.80084         0.02240
C           0.34908         0.73468         0.03559
N          -1.00748         1.22517         0.05804
H          -1.52840         0.88597        -0.74979
H          -1.50641         0.87251         0.87396
Xx         -1.02203         1.82584         0.06322
H          -0.63151        -1.24616         0.03260
H           0.90810        -1.18633        -0.88610
H           0.93247        -1.20111         0.91003
H           0.88028         1.13315         0.93220
H           0.85585         1.14798        -0.86842

