$RunGaus
%mem=8000Mb
%nproc=8
# mp2/cc-pVTZ

ethilamine-anti.hin

0  1
C           0.38841        -0.79453         0.04315
C           0.35416         0.73740         0.02404
N          -1.00527         1.21759         0.06346
H          -1.53966         0.85699        -0.72609
H          -1.48496         0.87864         0.89653
Xx         -1.02442         1.81808         0.05610
H           1.43717        -1.17107         0.01282
H          -0.09124        -1.19450         0.96637
H          -0.15189        -1.21833        -0.83483
H           0.90320         1.14631         0.90505
H           0.84233         1.12240        -0.90241

