$RunGaus
%mem=8000Mb
%nproc=8
# mp2/cc-pVTZ

Me-NH2-g.hin

0  1
C          -1.39510        -0.37690         0.00498
N          -1.41840         1.06250         0.00498
Xx         -1.98222         1.27040         0.00498
H          -0.33840        -0.72770         0.00498
H          -1.91031        -0.76136         0.91464
H          -1.91032        -0.76136        -0.90468
H          -0.92667         1.43323         0.81723
H          -0.92666         1.43323        -0.80727

