$RunGaus
%mem=8000Mb
%nproc=8
# mp2/cc-pVTZ

methanethiol-ecl.hin

0  1
C          -0.22161        -1.28982         0.02308
S          -0.12299         0.59553         0.02159
Xx         -0.76231         0.98795        -0.92777
Xx         -0.74510         0.98856         0.98207
H           1.05249         1.24897         0.01079
H           0.80978        -1.70797         0.01392
H          -0.75777        -1.62446         0.93915
H          -0.77418        -1.62505        -0.88297

