$RunGaus
%mem=8000Mb
%nproc=8
# mp2/cc-pVTZ

methanol-anti.hin

0  1
C          -0.63283        -0.43839        -0.54172
O          -0.65635         0.96924        -0.50098
Xx         -1.22165         1.13958        -0.61637
Xx         -0.27378         1.13958        -0.06911
H          -0.21155         1.27943        -1.27139
H           0.42912        -0.77765        -0.55489
H          -1.15470        -0.83043         0.36220
H          -1.15240        -0.77765        -1.46798

