$RunGaus
%mem=8000Mb
%nproc=8
# mp2/cc-pVTZ

methanol-ecl.hin

0  1
C          -0.63135        -0.43867        -0.54470
O          -0.65753         0.97041        -0.50100
Xx         -0.10041         1.15536        -0.37122
Xx         -1.04561         1.15487        -0.92149
H          -1.11398         1.22471         0.28280
H           0.42904        -0.78408        -0.55090
H          -1.15617        -0.83043         0.35710
H          -1.14923        -0.78491        -1.46974

