$RunGaus
%mem=8000Mb
%nproc=8
# mp2/cc-pVTZ

methylformate-C=O-Lp-ecl.hin

0  1
C          -1.66865         0.72343        -0.03440
O          -2.58475         0.16034        -0.58916
O          -0.57333         0.11772         0.49800
C           0.67489         0.58067         0.02198
H          -1.61297         1.83085         0.10051
H           0.67686         0.57994        -1.09384
H           0.88125         1.60572         0.41341
H           1.46509        -0.11627         0.38747
Xx         -0.65246        -0.46482         0.37908
Xx         -0.60145         0.35431         1.04887

