$RunGaus
%mem=8000Mb
%nproc=8
# mp2/cc-pVTZ

methanethiol-g.hin

0  1
C          -0.21890        -1.28900         0.02769
S          -0.17065         0.59515        -0.05587
Xx         -1.31325         0.98783         0.00930
Xx          0.34420         0.98783         0.96624
H           0.41788         1.24574        -1.07524
H           0.82361        -1.67828         0.04446
H          -0.75359        -1.59727         0.95381
H          -0.75467        -1.67828        -0.86676

