$RunGaus
%mem=8000Mb
%nproc=8
# mp2/cc-pVTZ

N-Me-Acetamide-E.hin

0  1
C          -2.05855        -0.71425         0.61075
C          -1.36384        -0.35298        -0.69095
N          -0.54978         0.76052        -0.73830
C          -0.31007         1.62308         0.39243
O          -1.51818        -1.02988        -1.67921
H          -2.67623        -1.63312         0.48748
H          -1.31180        -0.91588         1.41177
H          -2.73767         0.10663         0.93459
H          -0.11622         0.94097        -1.64710
H          -1.25895         2.08877         0.74267
H           0.17390         1.06102         1.22297
H           0.37992         2.43612         0.07385

