$RunGaus
%mem=8000Mb
%nproc=8
# mp2/cc-pVTZ

propene-H-H-ecl.hin

0  1
C          -0.39324        -0.84163         0.08902
C          -0.51592         0.63558         0.34630
C           0.15272         1.55567        -0.36278
H           0.66074        -1.17483         0.22598
H          -1.03262        -1.42566         0.78994
H          -0.71189        -1.08391        -0.95042
H          -1.18951         0.96249         1.15751
H           0.04217         2.63163        -0.15066
H           0.83192         1.25953        -1.17812

