# opt uff

Ach-C

1 1
 C                 -0.53817284   -0.88111111   -0.62254321
 C                 -0.36417284    0.44888889   -1.38054321
 H                 -0.39017284    0.20788889   -2.47054321
 H                 -1.28017284    1.05688889   -1.18654321
 N                  0.83582716    1.25688889   -1.10454321
 H                 -1.36517284   -1.47111111   -1.08754321
 O                 -0.93017284   -0.61211111    0.70345679
 H                  0.38882716   -1.49911111   -0.62654321
 C                 -0.99817284   -1.64811111    1.55645679
 O                 -0.77517284   -2.80211111    1.27545679
 C                 -1.38617284   -1.14011111    2.92745679
 C                  2.05382716    0.54188889   -1.49554321
 C                  0.75282716    2.49488889   -1.89154321
 C                  0.92182716    1.61088889    0.31345679
 H                 -1.43517284   -1.98111111    3.65745679
 H                 -0.63517284   -0.40411111    3.29545679
 H                 -2.38717284   -0.65311111    2.89145679
 H                  2.95882716    1.17788889   -1.35754321
 H                  2.21882716   -0.37411111   -0.88454321
 H                  2.01982716    0.23588889   -2.56654321
 H                  1.64182716    3.14688889   -1.72854321
 H                  0.69682716    2.28088889   -2.98454321
 H                 -0.14817284    3.09288889   -1.61854321
 H                  1.78082716    2.29388889    0.51045679
 H                 -0.00417284    2.12688889    0.65945679
 H                  1.08082716    0.71488889    0.95445679

 1 2 1.0 6 1.0 7 1.0 8 1.0
 2 3 1.0 4 1.0 5 1.0
 3
 4
 5 12 1.0 13 1.0 14 1.0
 6
 7 9 1.5
 8
 9 10 2.0 11 1.0
 10
 11 15 1.0 16 1.0 17 1.0
 12 18 1.0 19 1.0 20 1.0
 13 21 1.0 22 1.0 23 1.0
 14 24 1.0 25 1.0 26 1.0
 15
 16
 17
 18
 19
 20
 21
 22
 23
 24
 25
 26

