# opt uff

b-Me-Ach-A

1 1
 C                 -0.27929213   -0.23571910    0.51237079
 C                  0.44370787    1.05928090    0.06837079
 H                 -0.13029213    1.49528090   -0.78362921
 H                  0.33270787    1.80028090    0.89437079
 N                  1.85870787    0.97328090   -0.33562921
 H                  0.19770787   -1.12871910    0.04937079
 O                 -1.61129213   -0.14771910    0.04437079
 C                 -0.33429213   -0.40271910    2.04037079
 C                 -2.29629213   -1.28071910   -0.18662921
 O                 -1.88029213   -2.40371910   -0.02262921
 C                 -3.68029213   -0.93171910   -0.68762921
 C                  2.00970787    0.17528090   -1.55662921
 C                  2.34770787    2.33128090   -0.61262921
 C                  2.67770787    0.39128090    0.72837079
 H                 -3.61529213   -0.35071910   -1.63562921
 H                 -4.26929213   -1.85571910   -0.88662921
 H                 -4.22829213   -0.32971910    0.07337079
 H                  3.06870787    0.16328090   -1.90362921
 H                  1.71570787   -0.88771910   -1.41162921
 H                  1.39070787    0.58428090   -2.38962921
 H                  3.41570787    2.32628090   -0.93262921
 H                  1.76070787    2.81928090   -1.42562921
 H                  2.27870787    2.98328090    0.28937079
 H                  3.75770787    0.38728090    0.45237079
 H                  2.57670787    0.96828090    1.67637079
 H                  2.39970787   -0.66771910    0.93037079
 H                 -0.89329213    0.43628090    2.51637079
 H                  0.67870787   -0.43371910    2.49837079
 H                 -0.84729213   -1.34871910    2.32837079

 1 2 1.0 6 1.0 7 1.0 8 1.0
 2 3 1.0 4 1.0 5 1.0
 3
 4
 5 12 1.0 13 1.0 14 1.0
 6
 7 9 1.5
 8 27 1.0 28 1.0 29 1.0
 9 10 2.0 11 1.0
 10
 11 15 1.0 16 1.0 17 1.0
 12 18 1.0 19 1.0 20 1.0
 13 21 1.0 22 1.0 23 1.0
 14 24 1.0 25 1.0 26 1.0
 15
 16
 17
 18
 19
 20
 21
 22
 23
 24
 25
 26
 27
 28
 29

