# opt uff

Carbachol-A

1 1
 C                 -0.09672840   -0.46396296    0.17306173
 C                  0.06027160    0.93903704   -0.44093827
 H                  0.04427160    0.81703704   -1.55093827
 H                 -0.85972840    1.51803704   -0.18293827
 N                  1.24927160    1.71703704   -0.05493827
 H                  0.74027160   -1.13696296   -0.12693827
 O                 -1.29172840   -1.01896296   -0.33093827
 H                 -0.19072840   -0.41496296    1.28306173
 C                 -1.63372840   -2.25596296    0.07606173
 O                 -0.96172840   -2.89696296    0.84806173
 N                 -2.79972840   -2.78296296   -0.42293827
 C                  2.47827160    1.02103704   -0.44293827
 C                  1.20427160    3.01203704   -0.74593827
 C                  1.26827160    1.95903704    1.39006173
 H                 -3.36672840   -2.23996296   -1.07493827
 H                 -3.06072840   -3.72096296   -0.11493827
 H                  3.38027160    1.63603704   -0.21893827
 H                  2.60527160    0.06203704    0.10806173
 H                  2.48827160    0.79403704   -1.53393827
 H                  2.08527160    3.64503704   -0.48893827
 H                  1.20327160    2.88303704   -1.85393827
 H                  0.29127160    3.59003704   -0.47293827
 H                  2.12627160    2.60903704    1.68106173
 H                  0.33427160    2.46503704    1.72906173
 H                  1.37627160    1.01503704    1.97006173

 1 2 1.0 6 1.0 7 1.0 8 1.0
 2 3 1.0 4 1.0 5 1.0
 3
 4
 5 12 1.0 13 1.0 14 1.0
 6
 7 9 1.0
 8
 9 10 2.0 11 1.5
 10
 11 15 1.0 16 1.0
 12 17 1.0 18 1.0 19 1.0
 13 20 1.0 21 1.0 22 1.0
 14 23 1.0 24 1.0 25 1.0
 15
 16
 17
 18
 19
 20
 21
 22
 23
 24
 25

