# opt uff

Carbachol-B

1 1
 C                 -1.08188889   -0.40332099    0.11934568
 C                 -0.96288889    0.98267901   -0.54365432
 H                 -0.86588889    0.81067901   -1.64265432
 H                 -1.94588889    1.49567901   -0.40765432
 N                  0.10611111    1.88667901   -0.08565432
 H                 -1.01588889   -0.35332099    1.23034568
 O                 -0.07088889   -1.24832099   -0.38065432
 H                 -2.05888889   -0.86532099   -0.16265432
 C                  0.02911111   -2.48832099    0.13334568
 O                 -0.71388889   -2.90232099    0.99034568
 N                  1.03011111   -3.29132099   -0.35465432
 C                  1.42411111    1.26867901   -0.24465432
 C                  0.06011111    3.10967901   -0.89765432
 C                 -0.08388889    2.25767901    1.31934568
 H                  1.65811111   -2.93932099   -1.07865432
 H                  1.11111111   -4.23132099    0.03434568
 H                  2.24011111    1.97967901    0.02334568
 H                  1.54811111    0.38367901    0.41934568
 H                  1.59511111    0.94267901   -1.29665432
 H                  0.84711111    3.83767901   -0.59065432
 H                  0.22211111    2.88867901   -1.97865432
 H                 -0.92288889    3.62667901   -0.80265432
 H                  0.68011111    2.99967901    1.65034568
 H                 -1.08688889    2.71467901    1.48734568
 H                  0.01111111    1.38467901    2.00334568

 1 2 1.0 6 1.0 7 1.0 8 1.0
 2 3 1.0 4 1.0 5 1.0
 3
 4
 5 12 1.0 13 1.0 14 1.0
 6
 7 9 1.0
 8
 9 10 2.0 11 1.5
 10
 11 15 1.0 16 1.0
 12 17 1.0 18 1.0 19 1.0
 13 20 1.0 21 1.0 22 1.0
 14 23 1.0 24 1.0 25 1.0
 15
 16
 17
 18
 19
 20
 21
 22
 23
 24
 25

