# opt uff

dioxalane-A

1 1
 O                  1.25838144   -1.23375258    0.18102062
 C                  0.55738144   -0.02775258   -0.09097938
 C                  0.61338144    0.61824742    1.29602062
 C                  2.24038144   -0.98175258    1.17502062
 O                  1.89138144    0.25724742    1.77202062
 C                 -0.86161856   -0.45275258   -0.56097938
 N                 -1.88661856    0.50724742   -1.01397938
 C                  2.25238144   -2.10975258    2.21302062
 H                 -0.14761856    0.18824742    1.99102062
 H                  0.53638144    1.73024742    1.29702062
 H                  3.24438144   -0.87775258    0.68902062
 C                 -3.16461856   -0.21575258   -1.12397938
 C                 -2.05961856    1.60324742   -0.06397938
 C                 -1.58561856    1.05524742   -2.33997938
 H                  1.25938144   -2.21375258    2.70602062
 H                  2.50338144   -3.08475258    1.73402062
 H                  3.01138144   -1.91075258    3.00502062
 H                 -0.71761856   -1.21375258   -1.36497938
 H                 -1.28261856   -1.02575258    0.29902062
 H                 -3.98761856    0.44724742   -1.47997938
 H                 -3.09261856   -1.06675258   -1.84197938
 H                 -3.49161856   -0.62875258   -0.14097938
 H                 -2.90561856    2.26824742   -0.35697938
 H                 -2.27261856    1.22324742    0.96202062
 H                 -1.15661856    2.25224742   -0.02397938
 H                 -2.42161856    1.68924742   -2.71697938
 H                 -0.69361856    1.71524742   -2.33897938
 H                 -1.41561856    0.24824742   -3.08897938
 C                  1.37838144    0.77124742   -1.11997938
 H                  1.30638144    0.31424742   -2.13297938
 H                  2.45938144    0.81324742   -0.86097938
 H                  1.05038144    1.83224742   -1.16697938

 1 2 1.0 4 1.0
 2 3 1.0 6 1.0 29 1.0
 3 5 1.0 9 1.0 10 1.0
 4 5 1.0 8 1.0 11 1.0
 5
 6 7 1.0 18 1.0 19 1.0
 7 12 1.0 13 1.0 14 1.0
 8 15 1.0 16 1.0 17 1.0
 9
 10
 11
 12 20 1.0 21 1.0 22 1.0
 13 23 1.0 24 1.0 25 1.0
 14 26 1.0 27 1.0 28 1.0
 15
 16
 17
 18
 19
 20
 21
 22
 23
 24
 25
 26
 27
 28
 29 30 1.0 31 1.0 32 1.0
 30
 31
 32

