# opt uff

muscarine-C

1 1
 O                 -0.31384536    0.46594845    1.00075258
 C                  0.89815464    0.18194845    0.33075258
 C                  0.93015464    1.10794845   -0.89324742
 C                 -0.70784536    1.79494845    0.68275258
 C                  0.35715464    2.37594845   -0.25824742
 O                 -0.21184536    3.22994845   -1.22124742
 C                 -0.90584536    2.61394845    1.96375258
 C                  1.11815464   -1.32005155    0.03975258
 N                  0.00715464   -2.23505155   -0.28524742
 C                  0.58915464   -3.52005155   -0.70724742
 C                 -0.83984536   -2.50205155    0.88175258
 C                 -0.81384536   -1.72305155   -1.38124742
 H                  0.49215464    3.61094845   -1.71724742
 H                  0.03515464    2.66394845    2.55875258
 H                 -1.69484536    2.16194845    2.60775258
 H                 -0.19884536   -4.26805155   -0.95724742
 H                  1.22515464   -3.40605155   -1.61624742
 H                  1.22515464   -3.96505155    0.09375258
 H                 -1.61484536   -3.27005155    0.65275258
 H                 -0.24184536   -2.88205155    1.74275258
 H                 -1.39784536   -1.60805155    1.23075258
 H                 -1.60484536   -2.45305155   -1.67124742
 H                 -1.34284536   -0.78605155   -1.09824742
 H                 -0.19884536   -1.52305155   -2.28824742
 H                  0.27015464    0.74294845   -1.71224742
 H                  1.96015464    1.25594845   -1.29524742
 H                 -1.68384536    1.71894845    0.13875258
 H                  1.14515464    2.93794845    0.30075258
 H                  1.86315464   -1.33905155   -0.79024742
 H                  1.66215464   -1.73405155    0.92175258
 H                 -1.21584536    3.65594845    1.72075258
 H                  1.71915464    0.50694845    0.98575258

 1 2 1.0 4 1.0
 2 3 1.0 8 1.0 32 1.0
 3 5 1.0 25 1.0 26 1.0
 4 5 1.0 7 1.0 27 1.0
 5 6 1.0 28 1.0
 6 13 1.0
 7 14 1.0 15 1.0 31 1.0
 8 9 1.0 29 1.0 30 1.0
 9 10 1.0 11 1.0 12 1.0
 10 16 1.0 17 1.0 18 1.0
 11 19 1.0 20 1.0 21 1.0
 12 22 1.0 23 1.0 24 1.0
 13
 14
 15
 16
 17
 18
 19
 20
 21
 22
 23
 24
 25
 26
 27
 28
 29
 30
 31
 32

