$RunGaus
%mem=16000Mb
%nproc=8
# mp2/cc-pVTZ

1_2_DCE_t_single_point

0 1 
 c
 n   1 nc2     
 c    1 cc3         2 ccn3      
 c    3 cc4         1 ccc4          2 dih4   
 c    4 cc5         3 ccc5          1 dih5   
 n    5 nc6         4 ncc6          3 dih6   
 h    3 hc7         1 hcc7          2 dih7   
 h    3 hc8         1 hcc8          2 dih8   
 h    4 hc9         3 hcc9          1 dih9   
 h    4 hc10        3 hcc10         1 dih10  
 
nc2         1.160902
cc3         1.464882
ccn3        179.126
cc4         1.550786
ccc4        111.339
dih4         -0.792
cc5         1.464883
ccc5        111.341
dih5       -180.000
nc6         1.160902
ncc6        179.139
dih6          0.807
hc7         1.094859
hcc7        108.889
dih7        120.876
hc8         1.094857
hcc8        108.892
dih8       -122.462
hc9         1.094860
hcc9        110.174
dih9        -59.082
hc10        1.094856
hcc10       110.173
dih10        59.079
 
 
 

