$RunGaus
%mem=16000Mb
%nproc=8
# mp2/cc-pVTZ

1_2_DCE_g_single_point

0 1 
 c
 n   1 nc2     
 c    1 cc3         2 ccn3      
 c    3 cc4         1 ccc4          2 dih4   
 c    4 cc5         3 ccc5          1 dih5   
 n    5 nc6         4 ncc6          3 dih6   
 h    3 hc7         1 hcc7          2 dih7   
 h    3 hc8         1 hcc8          2 dih8   
 h    4 hc9         3 hcc9          1 dih9   
 h    4 hc10        3 hcc10         1 dih10  
 
nc2         1.160738
cc3         1.465621
ccn3        178.953
cc4         1.549658
ccc4        113.255
dih4         78.195
cc5         1.465609
ccc5        113.253
dih5         68.247
nc6         1.160737
ncc6        178.946
dih6         77.556
hc7         1.094806
hcc7        108.912
dih7       -158.766
hc8         1.095263
hcc8        108.248
dih8        -42.305
hc9         1.095266
hcc9        108.614
dih9       -171.463
hc10        1.094803
hcc10       110.235
dih10       -54.060
 
 
 

