$RunGaus
%mem=16000Mb
%nproc=8
# mp2/cc-pVTZ

1_2_ethanediol_a_a_a_single_point

0 1 
 c
 o   1 oc2     
 c    1 cc3         2 cco3      
 o    3 oc4         1 occ4          2 dih4   
 h    1 hc5         3 hcc5          4 dih5   
 h    1 hc6         3 hcc6          4 dih6   
 h    3 hc7         1 hcc7          2 dih7   
 h    3 hc8         1 hcc8          2 dih8   
 h    2 ho9         1 hoc9          3 dih9   
 h    4 ho10        3 hoc10         1 dih10  

oc2         1.428058
cc3         1.520622
cco3        106.994
oc4         1.428043
occ4        106.995
dih4        179.992
hc5         1.098788
hcc5        109.303
dih5        -59.221
hc6         1.098791
hcc6        109.302
dih6         59.205
hc7         1.098791
hcc7        109.302
dih7        -59.219
hc8         1.098793
hcc8        109.302
dih8         59.205
ho9         0.964676
hoc9        109.232
dih9       -179.987
ho10        0.964675
hoc10       109.233
dih10       179.955
 

