$RunGaus
%mem=16000Mb
%nproc=8
# mp2/cc-pVTZ

1_keto_cyclodecanone_single_point

0 1 
 c
 c   1 cc2     
 c    2 cc3         1 ccc3      
 c    3 cc4         2 ccc4          1 dih4   
 c    4 cc5         3 ccc5          2 dih5   
 c    5 cc6         4 ccc6          3 dih6   
 c    6 cc7         5 ccc7          4 dih7   
 o    7 oc8         6 occ8          5 dih8   
 c    1 cc9         2 ccc9          3 dih9   
 c    9 cc10        1 ccc10         2 dih10  
 c   10 cc11        9 ccc11         1 dih11  
 h    1 hc12        9 hcc12        10 dih12  
 h    1 hc13        9 hcc13        10 dih13  
 h    9 hc14        1 hcc14         2 dih14  
 h    9 hc15        1 hcc15         2 dih15  
 h    2 hc16        1 hcc16         9 dih16  
 h    2 hc17        1 hcc17         9 dih17  
 h   10 hc18        9 hcc18         1 dih18  
 h   10 hc19        9 hcc19         1 dih19  
 h    3 hc20        2 hcc20         1 dih20  
 h    3 hc21        2 hcc21         1 dih21  
 h    4 hc22        3 hcc22         2 dih22  
 h    4 hc23        3 hcc23         2 dih23  
 h   11 hc24       10 hcc24         9 dih24  
 h   11 hc25       10 hcc25         9 dih25  
 h    5 hc26        4 hcc26         3 dih26  
 h    5 hc27        4 hcc27         3 dih27  
 h    6 hc28        5 hcc28         4 dih28  
 h    6 hc29        5 hcc29         4 dih29  
 
cc2         1.545428
cc3         1.545428
ccc3        118.785
cc4         1.544408
ccc4        118.186
dih4         66.017
cc5         1.544577
ccc5        115.114
dih5         55.703
cc6         1.549971
ccc6        114.337
dih6       -151.041
cc7         1.530104
ccc7        115.202
dih7         54.511
oc8         1.222861
occ8        119.709
dih8       -108.991
cc9         1.544408
ccc9        118.186
dih9        -66.017
cc10        1.544577
ccc10       115.114
dih10       -55.702
cc11        1.549972
ccc11       114.337
dih11       151.041
hc12        1.098879
hcc12       107.950
dih12      -179.489
hc13        1.099449
hcc13       108.525
dih13        66.386
hc14        1.097575
hcc14       108.147
dih14      -177.799
hc15        1.092604
hcc15       109.346
dih15        68.597
hc16        1.098176
hcc16       106.605
dih16       173.711
hc17        1.097238
hcc17       109.631
dih17        61.066
hc18        1.092508
hcc18       110.411
dih18        27.775
hc19        1.096970
hcc19       109.772
dih19       -87.901
hc20        1.098879
hcc20       108.708
dih20       -57.392
hc21        1.099449
hcc21       107.092
dih21      -171.171
hc22        1.092604
hcc22       109.346
dih22       -68.596
hc23        1.097575
hcc23       108.147
dih23       177.800
hc24        1.098436
hcc24       108.653
dih24      -176.870
hc25        1.094546
hcc25       109.918
dih25        65.176
hc26        1.096969
hcc26       109.772
dih26        87.902
hc27        1.092508
hcc27       110.411
dih27       -27.775
hc28        1.094545
hcc28       109.918
dih28       -65.176
hc29        1.098436
hcc29       108.653
dih29       176.869
 
 
 

