$RunGaus
%mem=16000Mb
%nproc=8
# mp2/cc-pVTZ

1_propanol_aa_single_point

0 1 
 c
 c   1 cc2     
 c    2 cc3         1 ccc3      
 o    3 oc4         2 occ4          1 dih4   
 h    3 hc5         2 hcc5          1 dih5   
 h    2 hc6         3 hcc6          4 dih6   
 h    2 hc7         3 hcc7          4 dih7   
 h    1 hc8         2 hcc8          3 dih8   
 h    1 hc9         2 hcc9          3 dih9   
 h    1 hc10        2 hcc10         3 dih10  
 h    3 hc11        2 hcc11         1 dih11  
 h    4 ho12        3 hoc12         2 dih12  
 
cc2         1.532737
cc3         1.522512
ccc3        112.564
oc4         1.430685
occ4        108.252
dih4       -179.999
hc5         1.101410
hcc5        109.901
dih5         59.220
hc6         1.096791
hcc6        108.446
dih6        -57.727
hc7         1.096792
hcc7        108.446
dih7         57.729
hc8         1.094659
hcc8        110.956
dih8        180.000
hc9         1.096543
hcc9        111.481
dih9        -60.171
hc10        1.096542
hcc10       111.481
dih10        60.170
hc11        1.101411
hcc11       109.902
dih11       -59.218
ho12        0.965206
hoc12       109.225
dih12      -179.998
 
 
 

