$RunGaus
%mem=16000Mb
%nproc=8
# mp2/cc-pVTZ

2_5_dimethyl_1_3_dioxane_eq_ax_single_point

0 1 
 c
 o   1 oc2     
 c    2 co3         1 coc3      
 c    3 cc4         2 cco4          1 dih4   
 c    4 cc5         3 ccc5          2 dih5   
 o    5 oc6         4 occ6          3 dih6   
 c    4 cc7         3 ccc7          2 dih7   
 c    1 cc8         2 cco8          3 dih8   
 h    3 hc9         4 hcc9          5 dih9   
 h    3 hc10        4 hcc10         5 dih10  
 h    4 hc11        3 hcc11         2 dih11  
 h    5 hc12        4 hcc12         3 dih12  
 h    5 hc13        4 hcc13         3 dih13  
 h    1 hc14        2 hco14         3 dih14  
 h    8 hc15        1 hcc15         2 dih15  
 h    8 hc16        1 hcc16         2 dih16  
 h    8 hc17        1 hcc17         2 dih17  
 h    7 hc18        4 hcc18         3 dih18  
 h    7 hc19        4 hcc19         3 dih19  
 h    7 hc20        4 hcc20         3 dih20  
 
oc2         1.416700
co3         1.430367
coc3        111.915
cc4         1.537444
cco4        111.072
dih4         57.411
cc5         1.537425
ccc5        107.146
dih5        -52.719
oc6         1.430361
occ6        111.075
dih6         52.719
cc7         1.534911
ccc7        112.366
dih7         71.174
cc8         1.512007
cco8        108.603
dih8       -179.486
hc9         1.093489
hcc9        111.859
dih9       -171.079
hc10        1.103216
hcc10       110.122
dih10        68.471
hc11        1.099826
hcc11       107.834
dih11      -168.561
hc12        1.103220
hcc12       110.120
dih12       -68.472
hc13        1.093492
hcc13       111.858
dih13       171.081
hc14        1.108152
hco14       108.269
dih14        59.096
hc15        1.093372
hcc15       109.592
dih15        60.684
hc16        1.093052
hcc16       109.947
dih16      -179.496
hc17        1.093052
hcc17       109.949
dih17       -59.137
hc18        1.093220
hcc18       110.942
dih18       -60.462
hc19        1.095794
hcc19       110.872
dih19        59.669
hc20        1.095796
hcc20       110.875
dih20       179.407
 
 
 

