$RunGaus
%mem=16000Mb
%nproc=8
# mp2/cc-pVTZ

2_butanone_ecl_single_point

0 1 
 c
 c   1 cc2     
 o    2 oc3         1 occ3      
 c    2 cc4         3 cco4          1 dih4   
 c    4 cc5         2 ccc5          3 dih5   
 h    1 hc6         2 hcc6          4 dih6   
 h    1 hc7         2 hcc7          4 dih7   
 h    1 hc8         2 hcc8          4 dih8   
 h    4 hc9         2 hcc9          1 dih9   
 h    4 hc10        2 hcc10         1 dih10  
 h    5 hc11        4 hcc11         2 dih11  
 h    5 hc12        4 hcc12         2 dih12  
 h    5 hc13        4 hcc13         2 dih13  
 
cc2         1.519161
oc3         1.219165
occ3        121.454
cc4         1.524437
cco4        121.931
dih4        179.999
cc5         1.527639
ccc5        114.256
dih5         -0.032
hc6         1.091122
hcc6        109.932
dih6        179.959
hc7         1.096533
hcc7        110.390
dih7        -59.029
hc8         1.096528
hcc8        110.397
dih8         58.938
hc9         1.099823
hcc9        107.501
dih9        -56.280
hc10        1.099816
hcc10       107.507
dih10        56.206
hc11        1.094509
hcc11       110.486
dih11       179.995
hc12        1.093565
hcc12       111.021
dih12       -59.621
hc13        1.093561
hcc13       111.021
dih13        59.611
 
 
 

