$RunGaus
%mem=16000Mb
%nproc=8
# mp2/cc-pVTZ

2_keto_cyclodecanone_single_point

0 1 
 c
 c   1 cc2     
 c    2 cc3         1 ccc3      
 c    3 cc4         2 ccc4          1 dih4   
 c    4 cc5         3 ccc5          2 dih5   
 c    5 cc6         4 ccc6          3 dih6   
 o    6 oc7         5 occ7          4 dih7   
 c    1 cc8         2 ccc8          3 dih8   
 c    8 cc9         1 ccc9          2 dih9   
 c    9 cc10        8 ccc10         1 dih10  
 c   10 cc11        9 ccc11         8 dih11  
 h    1 hc12        8 hcc12         9 dih12  
 h    1 hc13        8 hcc13         9 dih13  
 h    8 hc14        1 hcc14         2 dih14  
 h    8 hc15        1 hcc15         2 dih15  
 h    2 hc16        1 hcc16         8 dih16  
 h    2 hc17        1 hcc17         8 dih17  
 h    9 hc18        8 hcc18         1 dih18  
 h    9 hc19        8 hcc19         1 dih19  
 h    3 hc20        2 hcc20         1 dih20  
 h    3 hc21        2 hcc21         1 dih21  
 h    4 hc22        3 hcc22         2 dih22  
 h    4 hc23        3 hcc23         2 dih23  
 h   10 hc24        9 hcc24         8 dih24  
 h   10 hc25        9 hcc25         8 dih25  
 h    5 hc26        4 hcc26         3 dih26  
 h    5 hc27        4 hcc27         3 dih27  
 h   11 hc28       10 hcc28         9 dih28  
 h   11 hc29       10 hcc29         9 dih29  
 
cc2         1.545110
cc3         1.543967
ccc3        118.629
cc4         1.544768
ccc4        118.009
dih4         66.758
cc5         1.546027
ccc5        115.170
dih5         57.056
cc6         1.531179
ccc6        118.191
dih6       -145.408
oc7         1.222369
occ7        119.392
dih7       -142.456
cc8         1.544573
ccc8        118.128
dih8        -65.593
cc9         1.543691
ccc9        115.219
dih9        -55.397
cc10        1.540944
ccc10       115.257
dih10       152.323
cc11        1.553093
ccc11       117.441
dih11       -60.086
hc12        1.098983
hcc12       108.139
dih12      -179.266
hc13        1.099234
hcc13       108.418
dih13        66.557
hc14        1.097978
hcc14       108.053
dih14      -177.510
hc15        1.093540
hcc15       108.996
dih15        68.936
hc16        1.098006
hcc16       106.696
dih16       174.080
hc17        1.096930
hcc17       109.655
dih17        61.418
hc18        1.093790
hcc18       110.195
dih18        28.637
hc19        1.097742
hcc19       109.125
dih19       -86.089
hc20        1.098902
hcc20       108.775
dih20       -56.461
hc21        1.098971
hcc21       107.327
dih21      -170.466
hc22        1.090928
hcc22       108.854
dih22       -67.658
hc23        1.096870
hcc23       108.099
dih23       178.552
hc24        1.096988
hcc24       108.749
dih24       176.759
hc25        1.098132
hcc25       109.133
dih25        61.387
hc26        1.094115
hcc26       111.256
dih26        91.199
hc27        1.097676
hcc27       109.832
dih27       -25.356
hc28        1.093717
hcc28       108.010
dih28       178.889
hc29        1.094766
hcc29       109.721
dih29        62.345
 
 
 

