$RunGaus
%mem=16000Mb
%nproc=8
# mp2/cc-pVTZ

2_methylcyclohexanone_eq_single_point

0 1 
 c
 c   1 cc2     
 c    2 cc3         1 ccc3      
 c    3 cc4         2 ccc4          1 dih4   
 c    4 cc5         3 ccc5          2 dih5   
 c    5 cc6         4 ccc6          3 dih6   
 o    2 oc7         3 occ7          4 dih7   
 c    1 cc8         2 ccc8          3 dih8   
 h    3 hc9         4 hcc9          5 dih9   
 h    3 hc10        4 hcc10         5 dih10  
 h    4 hc11        3 hcc11         2 dih11  
 h    4 hc12        3 hcc12         2 dih12  
 h    5 hc13        4 hcc13         3 dih13  
 h    5 hc14        4 hcc14         3 dih14  
 h    6 hc15        5 hcc15         4 dih15  
 h    6 hc16        5 hcc16         4 dih16  
 h    1 hc17        2 hcc17         3 dih17  
 h    8 hc18        1 hcc18         2 dih18  
 h    8 hc19        1 hcc19         2 dih19  
 h    8 hc20        1 hcc20         2 dih20  
 
cc2         1.530405
cc3         1.522398
ccc3        115.551
cc4         1.543581
ccc4        111.569
dih4         51.497
cc5         1.534698
ccc5        111.346
dih5        -52.241
cc6         1.535064
ccc6        111.267
dih6         55.318
oc7         1.220116
occ7        121.875
dih7       -128.077
cc8         1.528986
ccc8        112.705
dih8       -177.372
hc9         1.093329
hcc9        112.076
dih9       -174.089
hc10        1.100213
hcc10       108.977
dih10        66.613
hc11        1.096142
hcc11       109.624
dih11      -175.173
hc12        1.098500
hcc12       109.013
dih12        68.529
hc13        1.099637
hcc13       109.454
dih13       -65.764
hc14        1.096615
hcc14       110.094
dih14       177.443
hc15        1.096779
hcc15       110.520
dih15      -178.416
hc16        1.099551
hcc16       109.487
dih16        64.666
hc17        1.103064
hcc17       105.419
dih17        63.778
hc18        1.095319
hcc18       110.326
dih18      -176.987
hc19        1.093071
hcc19       111.285
dih19       -56.378
hc20        1.094735
hcc20       110.897
dih20        62.957
 
 
 

