$RunGaus
%mem=16000Mb
%nproc=8
# mp2/cc-pVTZ

2_methylaminotetrahydropyran_eq_single_point

0 1 
 c
 o   1 oc2     
 c    2 co3         1 coc3      
 c    3 cc4         2 cco4          1 dih4   
 c    4 cc5         3 ccc5          2 dih5   
 c    5 cc6         4 ccc6          3 dih6   
 n    1 nc7         2 nco7          3 dih7   
 c    7 cn8         1 cnc8          2 dih8   
 h    3 hc9         4 hcc9          5 dih9   
 h    3 hc10        4 hcc10         5 dih10  
 h    4 hc11        3 hcc11         2 dih11  
 h    4 hc12        3 hcc12         2 dih12  
 h    5 hc13        4 hcc13         3 dih13  
 h    5 hc14        4 hcc14         3 dih14  
 h    6 hc15        5 hcc15         4 dih15  
 h    6 hc16        5 hcc16         4 dih16  
 h    1 hc17        2 hco17         3 dih17  
 h    7 hn18        1 hnc18         2 dih18  
 h    8 hc19        7 hcn19         1 dih19  
 h    8 hc20        7 hcn20         1 dih20  
 h    8 hc21        7 hcn21         1 dih21  
 
oc2         1.431374
co3         1.426059
coc3        112.546
cc4         1.530134
cco4        111.313
dih4         61.493
cc5         1.536692
ccc5        110.205
dih5        -55.470
cc6         1.537749
ccc6        110.581
dih6         50.826
nc7         1.440558
nco7        106.838
dih7        177.039
cn8         1.461686
cnc8        114.992
dih8        -71.401
hc9         1.093564
hcc9        111.685
dih9       -173.445
hc10        1.104339
hcc10       110.137
dih10        66.547
hc11        1.097414
hcc11       109.747
dih11      -177.767
hc12        1.097445
hcc12       108.735
dih12        65.032
hc13        1.099447
hcc13       109.247
dih13       -69.565
hc14        1.096018
hcc14       110.748
dih14       173.352
hc15        1.098162
hcc15       110.347
dih15      -172.801
hc16        1.096804
hcc16       110.489
dih16        68.038
hc17        1.114753
hco17       106.718
dih17        57.181
hn18        1.014718
hnc18       109.802
dih18       162.255
hc19        1.093675
hcn19       109.190
dih19      -177.581
hc20        1.105152
hcn20       113.605
dih20       -56.289
hc21        1.092349
hcn21       109.153
dih21        64.487
 
 
 

