$RunGaus
%mem=16000Mb
%nproc=8
# mp2/cc-pVTZ

2_Me_THP_ax_single_point

0 1 
 c
 o   1 oc2     
 c    2 co3         1 coc3      
 c    3 cc4         2 cco4          1 dih4   
 c    4 cc5         3 ccc5          2 dih5   
 c    5 cc6         4 ccc6          3 dih6   
 c    1 cc7         2 cco7          3 dih7   
 h    3 hc8         4 hcc8          5 dih8   
 h    3 hc9         4 hcc9          5 dih9   
 h    4 hc10        3 hcc10         2 dih10  
 h    4 hc11        3 hcc11         2 dih11  
 h    5 hc12        4 hcc12         3 dih12  
 h    5 hc13        4 hcc13         3 dih13  
 h    6 hc14        5 hcc14         4 dih14  
 h    6 hc15        5 hcc15         4 dih15  
 h    1 hc16        2 hco16         3 dih16  
 h    7 hc17        1 hcc17         2 dih17  
 h    7 hc18        1 hcc18         2 dih18  
 h    7 hc19        1 hcc19         2 dih19  
 
oc2         1.439521
co3         1.428267
coc3        115.017
cc4         1.529569
cco4        112.012
dih4         57.894
cc5         1.535976
ccc5        110.183
dih5        -55.371
cc6         1.537852
ccc6        109.841
dih6         52.651
cc7         1.534212
cco7        111.952
dih7         72.946
hc8         1.093944
hcc8        111.408
dih8       -172.919
hc9         1.102038
hcc9        110.092
dih9         67.876
hc10        1.097510
hcc10       109.549
dih10      -177.909
hc11        1.098051
hcc11       108.897
dih11        64.992
hc12        1.098627
hcc12       109.494
dih12       -68.563
hc13        1.096322
hcc13       110.726
dih13       174.453
hc14        1.097114
hcc14       110.917
dih14      -174.911
hc15        1.097509
hcc15       108.854
dih15        67.588
hc16        1.095651
hco16       103.274
dih16      -171.400
hc17        1.094326
hcc17       109.919
dih17        51.019
hc18        1.095806
hcc18       109.881
dih18       170.060
hc19        1.094286
hcc19       112.916
dih19       -69.888
 
 
 

