$RunGaus
%mem=16000Mb
%nproc=8
# mp2/cc-pVTZ

2_methoxytetrahydropyran_ax_single_point

0 1 
 c
 o   1 oc2     
 c    2 co3         1 coc3      
 c    3 cc4         2 cco4          1 dih4   
 c    4 cc5         3 ccc5          2 dih5   
 c    5 cc6         4 ccc6          3 dih6   
 o    1 oc7         2 oco7          3 dih7   
 c    7 co8         1 coc8          2 dih8   
 h    3 hc9         4 hcc9          5 dih9   
 h    3 hc10        4 hcc10         5 dih10  
 h    4 hc11        3 hcc11         2 dih11  
 h    4 hc12        3 hcc12         2 dih12  
 h    5 hc13        4 hcc13         3 dih13  
 h    5 hc14        4 hcc14         3 dih14  
 h    6 hc15        5 hcc15         4 dih15  
 h    6 hc16        5 hcc16         4 dih16  
 h    1 hc17        2 hco17         3 dih17  
 h    8 hc18        7 hco18         1 dih18  
 h    8 hc19        7 hco19         1 dih19  
 h    8 hc20        7 hco20         1 dih20  
 
oc2         1.420829
co3         1.437735
coc3        114.317
cc4         1.527764
cco4        111.721
dih4         57.729
cc5         1.536182
ccc5        110.099
dih5        -55.694
cc6         1.536125
ccc6        109.888
dih6         52.955
oc7         1.414229
oco7        112.160
dih7         65.955
co8         1.423673
coc8        114.139
dih8         63.822
hc9         1.093269
hcc9        111.785
dih9       -173.040
hc10        1.099303
hcc10       110.270
dih10        66.345
hc11        1.097282
hcc11       109.386
dih11      -177.976
hc12        1.098194
hcc12       109.033
dih12        64.973
hc13        1.096813
hcc13       109.626
dih13       -67.366
hc14        1.096177
hcc14       110.738
dih14       174.749
hc15        1.094873
hcc15       111.407
dih15      -173.340
hc16        1.097054
hcc16       109.778
dih16        67.506
hc17        1.099525
hco17       103.797
dih17      -175.892
hc18        1.091934
hco18       106.640
dih18       177.134
hc19        1.096014
hco19       111.641
dih19       -63.132
hc20        1.100031
hco20       110.907
dih20        58.368
 
 
 

