$RunGaus
%mem=16000Mb
%nproc=8
# mp2/cc-pVTZ

2_propanol_g_single_point

0 1 
 c
 c   1 cc2     
 o    2 oc3         1 occ3      
 c    2 cc4         3 cco4          1 dih4   
 h    1 hc5         2 hcc5          4 dih5   
 h    1 hc6         2 hcc6          4 dih6   
 h    1 hc7         2 hcc7          4 dih7   
 h    2 hc8         1 hcc8          5 dih8   
 h    4 hc9         2 hcc9          1 dih9   
 h    4 hc10        2 hcc10         1 dih10  
 h    4 hc11        2 hcc11         1 dih11  
 h    3 ho12        2 hoc12         1 dih12  
 
cc2         1.523512
oc3         1.437423
occ3        106.274
cc4         1.529620
cco4        111.153
dih4        122.999
hc5         1.093876
hcc5        110.387
dih5       -178.927
hc6         1.095396
hcc6        110.283
dih6        -59.340
hc7         1.094994
hcc7        110.640
dih7         60.861
hc8         1.102158
hcc8        108.768
dih8         60.170
hc9         1.097021
hcc9        111.191
dih9        179.306
hc10        1.095927
hcc10       110.859
dih10       -61.130
hc11        1.095427
hcc11       110.375
dih11        59.204
ho12        0.966148
hoc12       108.903
dih12      -179.154
 
 
 

