$RunGaus
%mem=8000Mb
%nproc=8
# mp2/cc-pVTZ

4_Me_THP_eq_single_point

0 1 
 c
 o   1 oc2     
 c    2 co3         1 coc3      
 c    3 cc4         2 cco4          1 dih4   
 c    4 cc5         3 ccc5          2 dih5   
 c    5 cc6         4 ccc6          3 dih6   
 c    5 cc7         4 ccc7          3 dih7   
 h    7 hc8         5 hcc8          4 dih8   
 h    7 hc9         5 hcc9          4 dih9   
 h    7 hc10        5 hcc10         4 dih10  
 h    3 hc11        4 hcc11         5 dih11  
 h    3 hc12        4 hcc12         5 dih12  
 h    4 hc13        3 hcc13         2 dih13  
 h    4 hc14        3 hcc14         2 dih14  
 h    5 hc15        4 hcc15         3 dih15  
 h    6 hc16        5 hcc16         7 dih16  
 h    1 hc17        2 hco17         3 dih17  
 h    1 hc18        2 hco18         3 dih18  
 h    6 hc19        5 hcc19         7 dih19  
 
oc2         1.425792
co3         1.425773
coc3        112.151
cc4         1.530888
cco4        111.842
dih4        -59.485
cc5         1.539655
ccc5        111.138
dih5         55.756
cc6         1.539666
ccc6        108.942
dih6        -51.264
cc7         1.532217
ccc7        112.273
dih7       -176.264
hc8         1.096251
hcc8        111.238
dih8       -178.542
hc9         1.097012
hcc9        110.941
dih9         61.574
hc10        1.096252
hcc10       111.238
dih10       -58.308
hc11        1.104530
hcc11       110.019
dih11       -66.043
hc12        1.093655
hcc12       111.484
dih12       174.143
hc13        1.098802
hcc13       108.896
dih13       -64.889
hc14        1.098238
hcc14       109.499
dih14       178.171
hc15        1.102069
hcc15       107.558
dih15        65.039
hc16        1.098793
hcc16       109.452
dih16        55.948
hc17        1.093657
hco17       105.923
dih17      -178.868
hc18        1.104515
hco18       109.401
dih18       -62.668
hc19        1.098242
hcc19       110.543
dih19       -61.927
 
 
 

