$RunGaus
%mem=8000Mb
%nproc=8
%RWF=/media/S/Gaussian_scratch/,140GB,/media/TOSHIBA\ EXT/,180GB,/home/scratch/stylianakis/,60GB,
%NoSave
# mp2/cc-pVTZ

aagtxgtx16080_single_point

0 1
 C              
 C                  1            B1
 C                  1            B2    2            A1
 O                  3            B3    1            A2    2            D1    0
 C                  2            B4    1            A3    3            D2    0
 C                  4            B5    3            A4    1            D3    0
 O                  6            B6    4            A5    3            D4    0
 C                  7            B7    6            A6    4            D5    0
 O                  8            B8    7            A7    6            D6    0
 C                  8            B9    7            A8    6            D7    0
 C                  9           B10    8            A9    7            D8    0
 C                 11           B11    9           A10    8            D9    0
 C                 12           B12   11           A11    9           D10    0
 H                  1           B13    2           A12    5           D11    0
 O                  1           B14    2           A13    5           D12    0
 H                  2           B15    1           A14   15           D13    0
 O                  2           B16    1           A15   15           D14    0
 H                  3           B17    1           A16   15           D15    0
 C                  3           B18    1           A17   15           D16    0
 O                  5           B19    2           A18    1           D17    0
 H                  5           B20    2           A19    1           D18    0
 H                  6           B21    4           A20    3           D19    0
 H                  8           B22    7           A21    6           D20    0
 H                 10           B23    8           A22    7           D21    0
 O                 10           B24    8           A23    7           D22    0
 H                 11           B25    9           A24    8           D23    0
 C                 11           B26    9           A25    8           D24    0
 O                 12           B27   11           A26    9           D25    0
 H                 12           B28   11           A27    9           D26    0
 O                 13           B29   12           A28   11           D27    0
 H                 13           B30   12           A29   11           D28    0
 H                 19           B31    3           A30    1           D29    0
 H                 19           B32    3           A31    1           D30    0
 O                 19           B33    3           A32    1           D31    0
 H                 27           B34   11           A33    9           D32    0
 H                 27           B35   11           A34    9           D33    0
 O                 27           B36   11           A35    9           D34    0
 H                 37           B37   27           A36   11           D35    0
 H                 25           B38   10           A37    8           D36    0
 H                 30           B39   13           A38   12           D37    0
 H                 28           B40   12           A39   11           D38    0
 H                 20           B41    5           A40    2           D39    0
 H                 17           B42    2           A41    1           D40    0
 H                 15           B43    1           A42    2           D41    0
 H                 34           B44   19           A43    3           D42    0

   B1             1.52827731
   B2             1.53008173
   B3             1.44785830
   B4             1.53200867
   B5             1.40678236
   B6             1.42490059
   B7             1.42513545
   B8             1.40673009
   B9             1.53807417
   B10            1.44797046
   B11            1.53010794
   B12            1.52824908
   B13            1.10162995
   B14            1.42112537
   B15            1.10141488
   B16            1.42405126
   B17            1.09789312
   B18            1.52111840
   B19            1.41996004
   B20            1.09531396
   B21            1.09472138
   B22            1.09471453
   B23            1.09532179
   B24            1.41992264
   B25            1.09786545
   B26            1.52116727
   B27            1.42111220
   B28            1.10163840
   B29            1.42408676
   B30            1.10141536
   B31            1.09942510
   B32            1.09139811
   B33            1.42451043
   B34            1.09945787
   B35            1.09140482
   B36            1.42438131
   B37            0.96728249
   B38            0.97060461
   B39            0.96848054
   B40            0.96834416
   B41            0.97058587
   B42            0.96846831
   B43            0.96834315
   B44            0.96727693
   A1           108.77320371
   A2           109.41130205
   A3           110.54948041
   A4           115.15768787
   A5           110.54339228
   A6           118.57120133
   A7           110.51044895
   A8           109.43640000
   A9           115.17385509
   A10          109.42049905
   A11          108.79975605
   A12          108.66535348
   A13          111.54432384
   A14          108.24071573
   A15          107.37617863
   A16          108.86221986
   A17          114.95543796
   A18          111.79153384
   A19          108.18614887
   A20          105.99397945
   A21          109.72483243
   A22          107.31537376
   A23          112.61803101
   A24          109.23997951
   A25          105.94337479
   A26          108.08976443
   A27          109.34372073
   A28          107.37207547
   A29          108.24911191
   A30          109.90485580
   A31          109.19859470
   A32          110.92279715
   A33          109.88909728
   A34          109.18828659
   A35          110.95470327
   A36          107.81146400
   A37          109.34036030
   A38          108.16170474
   A39          107.56464891
   A40          109.27134593
   A41          108.16374454
   A42          107.56314548
   A43          107.82196987
   D1           -58.22505538
   D2            55.48599827
   D3            61.41239258
   D4            64.11992824
   D5           108.71370360
   D6           109.17546085
   D7          -128.55151688
   D8            64.14638000
   D9            61.33888937
   D10          -58.15761924
   D11          -63.47502600
   D12          174.62080057
   D13           54.79445299
   D14          -63.67420539
   D15          -60.17535119
   D16           61.47817285
   D17         -178.88451918
   D18           65.48112534
   D19         -177.02656055
   D20           -7.36014805
   D21          171.32478827
   D22           55.79250880
   D23          -57.77034097
   D24         -174.23919675
   D25         -179.44327691
   D26           60.36798441
   D27          177.18763706
   D28          -64.34431479
   D29           59.33115752
   D30          -59.72228381
   D31         -177.35398792
   D32          -61.62793839
   D33          179.33735824
   D34           61.69390354
   D35          -66.47506817
   D36          -50.66980879
   D37         -173.47449775
   D38          169.95275927
   D39           75.53948566
   D40         -173.64346955
   D41           50.39800652
   D42          -66.73895520

