$RunGaus
%mem=2000Mb
%nproc=4
%rwf=/pub/tmp/
%NoSave
# mp2/cc-pVTZ

aagtxgtx6060_single_point

0 1
 C              
 C                  1            B1
 C                  1            B2    2            A1
 O                  3            B3    1            A2    2            D1    0
 C                  2            B4    1            A3    3            D2    0
 C                  4            B5    3            A4    1            D3    0
 O                  6            B6    4            A5    3            D4    0
 C                  7            B7    6            A6    4            D5    0
 O                  8            B8    7            A7    6            D6    0
 C                  8            B9    7            A8    6            D7    0
 C                  9           B10    8            A9    7            D8    0
 C                 11           B11    9           A10    8            D9    0
 C                 12           B12   11           A11    9           D10    0
 H                  1           B13    2           A12    5           D11    0
 O                  1           B14    2           A13    5           D12    0
 H                  2           B15    1           A14   15           D13    0
 O                  2           B16    1           A15   15           D14    0
 H                  3           B17    1           A16   15           D15    0
 C                  3           B18    1           A17   15           D16    0
 O                  5           B19    2           A18    1           D17    0
 H                  5           B20    2           A19    1           D18    0
 H                  6           B21    4           A20    3           D19    0
 H                  8           B22    7           A21    6           D20    0
 H                 10           B23    8           A22    7           D21    0
 O                 10           B24    8           A23    7           D22    0
 H                 11           B25    9           A24    8           D23    0
 C                 11           B26    9           A25    8           D24    0
 O                 12           B27   11           A26    9           D25    0
 H                 12           B28   11           A27    9           D26    0
 O                 13           B29   12           A28   11           D27    0
 H                 13           B30   12           A29   11           D28    0
 H                 19           B31    3           A30    1           D29    0
 H                 19           B32    3           A31    1           D30    0
 O                 19           B33    3           A32    1           D31    0
 H                 27           B34   11           A33    9           D32    0
 H                 27           B35   11           A34    9           D33    0
 O                 27           B36   11           A35    9           D34    0
 H                 37           B37   27           A36   11           D35    0
 H                 25           B38   10           A37    8           D36    0
 H                 30           B39   13           A38   12           D37    0
 H                 28           B40   12           A39   11           D38    0
 H                 20           B41    5           A40    2           D39    0
 H                 17           B42    2           A41    1           D40    0
 H                 15           B43    1           A42    2           D41    0
 H                 34           B44   19           A43    3           D42    0

   B1             1.52649580
   B2             1.53143290
   B3             1.44808018
   B4             1.53149675
   B5             1.40571444
   B6             1.43203073
   B7             1.43203035
   B8             1.40571464
   B9             1.53601984
   B10            1.44808123
   B11            1.53143241
   B12            1.52649583
   B13            1.10182668
   B14            1.42146898
   B15            1.10148788
   B16            1.42366572
   B17            1.09727397
   B18            1.52451749
   B19            1.42316336
   B20            1.09475191
   B21            1.09307930
   B22            1.09307922
   B23            1.09475185
   B24            1.42316339
   B25            1.09727392
   B26            1.52451710
   B27            1.42146959
   B28            1.10182624
   B29            1.42366610
   B30            1.10148777
   B31            1.10043494
   B32            1.09153765
   B33            1.42077849
   B34            1.10043356
   B35            1.09153774
   B36            1.42077900
   B37            0.96698049
   B38            0.96902181
   B39            0.96852353
   B40            0.96825518
   B41            0.96902139
   B42            0.96852339
   B43            0.96825577
   B44            0.96698050
   A1           109.74936249
   A2           109.77414873
   A3           110.68639582
   A4           116.79164912
   A5           112.88810879
   A6           115.39009575
   A7           112.88815262
   A8           106.62851602
   A9           116.79157522
   A10          109.77410328
   A11          109.74938412
   A12          108.28593771
   A13          111.49371548
   A14          108.36768159
   A15          107.43909698
   A16          109.70419295
   A17          113.15284647
   A18          111.10625466
   A19          108.61372960
   A20          105.51004106
   A21          109.21214057
   A22          107.72581191
   A23          112.53384305
   A24          109.33971570
   A25          105.75729458
   A26          107.89025474
   A27          109.09028478
   A28          107.43914014
   A29          108.36774413
   A30          109.23460476
   A31          109.01677604
   A32          111.96736186
   A33          109.23463745
   A34          109.01675705
   A35          111.96736495
   A36          107.57548717
   A37          107.72954036
   A38          108.05309660
   A39          107.56069532
   A40          107.72951725
   A41          108.05308072
   A42          107.56073177
   A43          107.57553565
   D1           -55.43615636
   D2            55.31620628
   D3            57.46762588
   D4            64.88264990
   D5            64.69298360
   D6            64.69272284
   D7          -172.62119739
   D8            64.88249530
   D9            57.46774119
   D10          -55.43623894
   D11          -63.67111832
   D12          174.79927579
   D13           54.93407453
   D14          -63.50492796
   D15          -56.93296213
   D16           65.01908771
   D17         -178.62063385
   D18           65.43909217
   D19         -175.91818228
   D20          -52.33978025
   D21          168.75925659
   D22           52.55604907
   D23          -62.92320689
   D24          179.85098992
   D25         -177.10250818
   D26           63.05503850
   D27          177.01202584
   D28          -64.54892940
   D29           56.65217181
   D30          -61.75044488
   D31         -179.90830620
   D32          -63.54497237
   D33          178.05236994
   D34           59.89458620
   D35          -61.48085289
   D36          -45.51154128
   D37         -171.93470192
   D38          172.27959833
   D39           79.43969137
   D40         -171.93483825
   D41           51.70041161
   D42          -61.48060852

