$RunGaus
%mem=8000Mb
%nproc=8
# mp2/cc-pVTZ

acetaldehyde_dimethylacetal_g_g_single_point

0 1 
 c
 o   1 oc2     
 c    2 co3         1 coc3      
 c    3 cc4         2 cco4          1 dih4   
 o    3 oc5         2 oco5          1 dih5   
 c    5 co6         3 coc6          2 dih6   
 h    1 hc7         2 hco7          3 dih7   
 h    1 hc8         2 hco8          3 dih8   
 h    1 hc9         2 hco9          3 dih9   
 h    3 hc10        2 hco10         1 dih10  
 h    6 hc11        5 hco11         3 dih11  
 h    6 hc12        5 hco12         3 dih12  
 h    6 hc13        5 hco13         3 dih13  
 h    4 hc14        3 hcc14         2 dih14  
 h    4 hc15        3 hcc15         2 dih15  
 h    4 hc16        3 hcc16         2 dih16  
 
oc2         1.426477
co3         1.419897
coc3        116.180
cc4         1.522454
cco4        114.246
dih4         57.487
oc5         1.412808
oco5        112.195
dih5        -64.738
co6         1.424466
coc6        114.258
dih6        -64.732
hc7         1.092064
hco7        106.129
dih7        168.570
hc8         1.097579
hco8        111.712
dih8        -73.055
hc9         1.096197
hco9        111.562
dih9         49.579
hc10        1.099684
hco10       102.836
dih10       177.540
hc11        1.091804
hco11       106.599
dih11      -177.321
hc12        1.099839
hco12       110.915
dih12       -58.575
hc13        1.096039
hco13       111.617
dih13        62.999
hc14        1.093720
hcc14       110.046
dih14        50.696
hc15        1.093383
hcc15       111.180
dih15       -70.496
hc16        1.093276
hcc16       109.483
dih16       170.376
 
 
 

