$RunGaus
%mem=8000Mb
%nproc=8
# mp2/cc-pVTZ

acetaldehyde_dimethylacetal_g_ecl_single_point

0 1 
 c
 o   1 oc2     
 c    2 co3         1 coc3      
 c    3 cc4         2 cco4          1 dih4   
 o    3 oc5         2 oco5          1 dih5   
 c    5 co6         3 coc6          2 dih6   
 h    1 hc7         2 hco7          3 dih7   
 h    1 hc8         2 hco8          3 dih8   
 h    1 hc9         2 hco9          3 dih9   
 h    3 hc10        2 hco10         1 dih10  
 h    6 hc11        5 hco11         3 dih11  
 h    6 hc12        5 hco12         3 dih12  
 h    6 hc13        5 hco13         3 dih13  
 h    4 hc14        3 hcc14         2 dih14  
 h    4 hc15        3 hcc15         2 dih15  
 h    4 hc16        3 hcc16         2 dih16  
 
oc2         1.424512
co3         1.396584
coc3        114.649
cc4         1.520184
cco4        107.640
dih4       -174.158
oc5         1.427057
oco5        108.358
dih5         64.569
co6         1.417479
coc6        114.902
dih6       -156.112
hc7         1.091605
hco7        106.407
dih7        175.906
hc8         1.094720
hco8        111.317
dih8        -64.597
hc9         1.100492
hco9        110.881
dih9         57.363
hc10        1.108641
hco10       109.838
dih10       -52.937
hc11        1.092103
hco11       106.749
dih11       174.769
hc12        1.099449
hco12       112.253
dih12       -66.335
hc13        1.100910
hco13       111.477
dih13        55.843
hc14        1.093738
hcc14       110.240
dih14        61.586
hc15        1.093408
hcc15       109.244
dih15       -58.245
hc16        1.094077
hcc16       110.721
dih16      -178.264
 
 
 

