$RunGaus
%mem=8000Mb
%nproc=8
# mp2/cc-pVTZ

C_Et_glycoside_a_single_point

0 1 
 c
 o   1 oc2     
 c    2 co3         1 coc3      
 c    3 cc4         2 cco4          1 dih4   
 c    4 cc5         3 ccc5          2 dih5   
 c    5 cc6         4 ccc6          3 dih6   
 c    3 cc7         4 ccc7          5 dih7   
 o    7 oc8         3 occ8          4 dih8   
 o    4 oc9         3 occ9          2 dih9   
 o    5 oc10        4 occ10         3 dih10  
 o    6 oc11        5 occ11         4 dih11  
 c    1 cc12        2 cco12         3 dih12  
 c   12 cc13        1 ccc13         2 dih13  
 h    3 hc14        4 hcc14         5 dih14  
 h    4 hc15        3 hcc15         2 dih15  
 h    5 hc16        4 hcc16         3 dih16  
 h    6 hc17        5 hcc17         4 dih17  
 h    1 hc18        2 hco18         3 dih18  
 h   12 hc19        1 hcc19         2 dih19  
 h   12 hc20        1 hcc20         2 dih20  
 h    7 hc21        3 hcc21         4 dih21  
 h    9 ho22        4 hoc22         3 dih22  
 h   10 ho23        5 hoc23         4 dih23  
 h   11 ho24        6 hoc24         5 dih24  
 h   13 hc25       12 hcc25         1 dih25  
 h   13 hc26       12 hcc26         1 dih26  
 h   13 hc27       12 hcc27         1 dih27  
 h    8 ho28        7 hoc28         3 dih28  
 h    7 hc29        3 hcc29         4 dih29  
 
oc2         1.440529
co3         1.424742
coc3        116.460
cc4         1.540151
cco4        110.525
dih4         59.089
cc5         1.526436
ccc5        110.323
dih5        -52.272
cc6         1.527023
ccc6        111.089
dih6         51.769
cc7         1.523392
ccc7        112.895
dih7       -172.937
oc8         1.424398
occ8        109.354
dih8         53.947
oc9         1.434519
occ9        112.540
dih9       -175.960
oc10        1.427712
occ10       111.854
dih10       171.389
oc11        1.423883
occ11       111.033
dih11      -176.895
cc12        1.542470
cco12       112.398
dih12        69.826
cc13        1.535442
ccc13       113.635
dih13       149.739
hc14        1.106438
hcc14       108.825
dih14        68.753
hc15        1.092781
hcc15       108.761
dih15        68.086
hc16        1.103856
hcc16       108.973
dih16       -68.073
hc17        1.099921
hcc17       107.470
dih17        62.861
hc18        1.094806
hco18       103.354
dih18      -174.006
hc19        1.097333
hcc19       106.358
dih19        29.589
hc20        1.096449
hcc20       111.374
dih20       -86.443
hc21        1.098461
hcc21       107.972
dih21       174.979
ho22        0.968696
hoc22       108.950
dih22        57.935
ho23        0.968175
hoc23       107.975
dih23        46.360
ho24        0.968243
hoc24       107.084
dih24       -52.525
hc25        1.095320
hcc25       110.498
dih25      -177.693
hc26        1.096491
hcc26       110.797
dih26       -58.529
hc27        1.091951
hcc27       111.217
dih27        61.696
ho28        0.964481
hoc28       109.087
dih28       178.517
hc29        1.098866
hcc29       108.399
dih29       -67.060
 
 
 

