$RunGaus
%mem=8000Mb
%nproc=8
# mp2/cc-pVTZ

cis_2_6_DiMe_cyclOMe_ecl_single_point

0 1 
 c
 c   1 cc2     
 c    2 cc3         1 ccc3      
 c    3 cc4         2 ccc4          1 dih4   
 c    4 cc5         3 ccc5          2 dih5   
 c    5 cc6         4 ccc6          3 dih6   
 c    2 cc7         3 ccc7          4 dih7   
 c    6 cc8         5 ccc8          4 dih8   
 o    1 oc9         2 occ9          3 dih9   
 c    9 co10        1 coc10         2 dih10  
 h    3 hc11        4 hcc11         5 dih11  
 h    4 hc12        3 hcc12         2 dih12  
 h    4 hc13        3 hcc13         2 dih13  
 h    5 hc14        4 hcc14         3 dih14  
 h    5 hc15        4 hcc15         3 dih15  
 h    2 hc16        3 hcc16         4 dih16  
 h    6 hc17        5 hcc17         4 dih17  
 h    1 hc18        2 hcc18         3 dih18  
 h   10 hc19        9 hco19         1 dih19  
 h   10 hc20        9 hco20         1 dih20  
 h   10 hc21        9 hco21         1 dih21  
 h    7 hc22        2 hcc22         3 dih22  
 h    7 hc23        2 hcc23         3 dih23  
 h    7 hc24        2 hcc24         3 dih24  
 h    3 hc25        4 hcc25         5 dih25  
 h    8 hc26        6 hcc26         5 dih26  
 h    8 hc27        6 hcc27         5 dih27  
 h    8 hc28        6 hcc28         5 dih28  
 
cc2         1.542326
cc3         1.540864
ccc3        110.615
cc4         1.533282
ccc4        112.367
dih4         54.527
cc5         1.533283
ccc5        110.877
dih5        -54.943
cc6         1.540860
ccc6        112.368
dih6         54.942
cc7         1.533957
ccc7        111.383
dih7       -179.996
cc8         1.533958
ccc8        111.384
dih8       -179.999
oc9         1.436929
occ9        109.099
dih9       -175.338
co10        1.416545
coc10       115.816
dih10      -118.446
hc11        1.097548
hcc11       110.480
dih11      -177.299
hc12        1.097117
hcc12       110.274
dih12      -177.370
hc13        1.099361
hcc13       109.382
dih13        65.770
hc14        1.101043
hcc14       109.294
dih14       -66.155
hc15        1.097547
hcc15       110.481
dih15       177.298
hc16        1.100647
hcc16       108.148
dih16       -61.471
hc17        1.100649
hcc17       108.149
dih17        61.474
hc18        1.104073
hcc18       108.620
dih18        65.949
hc19        1.093280
hco19       106.787
dih19       179.991
hc20        1.099928
hco20       111.952
dih20       -61.114
hc21        1.099922
hco21       111.955
dih21        61.094
hc22        1.095945
hcc22       110.673
dih22        57.580
hc23        1.093415
hcc23       111.211
dih23       177.507
hc24        1.097899
hcc24       111.113
dih24       -61.735
hc25        1.101041
hcc25       109.294
dih25        66.154
hc26        1.097900
hcc26       111.112
dih26        61.728
hc27        1.095942
hcc27       110.674
dih27       -57.588
hc28        1.093415
hcc28       111.210
dih28      -177.517
 
 
 

