$RunGaus
%mem=8000Mb
%nproc=8
# mp2/cc-pVTZ

cis_2_6_DiMe_cyclOMe_anti_single_point

0 1 
 c
 c   1 cc2     
 c    2 cc3         1 ccc3      
 c    3 cc4         2 ccc4          1 dih4   
 c    4 cc5         3 ccc5          2 dih5   
 c    5 cc6         4 ccc6          3 dih6   
 c    2 cc7         3 ccc7          4 dih7   
 c    6 cc8         5 ccc8          4 dih8   
 o    1 oc9         2 occ9          3 dih9   
 c    9 co10        1 coc10         2 dih10  
 h    3 hc11        4 hcc11         5 dih11  
 h    4 hc12        3 hcc12         2 dih12  
 h    4 hc13        3 hcc13         2 dih13  
 h    5 hc14        4 hcc14         3 dih14  
 h    5 hc15        4 hcc15         3 dih15  
 h    2 hc16        3 hcc16         4 dih16  
 h    6 hc17        5 hcc17         4 dih17  
 h    1 hc18        2 hcc18         3 dih18  
 h   10 hc19        9 hco19         1 dih19  
 h   10 hc20        9 hco20         1 dih20  
 h   10 hc21        9 hco21         1 dih21  
 h    7 hc22        2 hcc22         3 dih22  
 h    7 hc23        2 hcc23         3 dih23  
 h    7 hc24        2 hcc24         3 dih24  
 h    3 hc25        4 hcc25         5 dih25  
 h    8 hc26        6 hcc26         5 dih26  
 h    8 hc27        6 hcc27         5 dih27  
 h    8 hc28        6 hcc28         5 dih28  
 
cc2         1.545507
cc3         1.541275
ccc3        109.924
cc4         1.533521
ccc4        112.398
dih4         54.724
cc5         1.533519
ccc5        110.896
dih5        -55.352
cc6         1.541276
ccc6        112.399
dih6         55.352
cc7         1.534461
ccc7        111.273
dih7        179.141
cc8         1.534461
ccc8        111.273
dih8       -179.139
oc9         1.437633
occ9        112.796
dih9        175.914
co10        1.418115
coc10       117.460
dih10        64.622
hc11        1.097488
hcc11       110.502
dih11      -177.751
hc12        1.097042
hcc12       110.248
dih12      -177.743
hc13        1.099681
hcc13       109.417
dih13        65.438
hc14        1.100721
hcc14       109.259
dih14       -65.655
hc15        1.097488
hcc15       110.502
dih15       177.752
hc16        1.100878
hcc16       107.087
dih16       -62.517
hc17        1.100880
hcc17       107.088
dih17        62.518
hc18        1.099974
hcc18       107.609
dih18        63.682
hc19        1.092889
hco19       106.048
dih19      -179.989
hc20        1.098859
hco20       112.614
dih20       -61.580
hc21        1.098860
hco21       112.613
dih21        61.601
hc22        1.096061
hcc22       110.712
dih22        57.702
hc23        1.093236
hcc23       111.761
dih23       178.599
hc24        1.097140
hcc24       110.697
dih24       -61.731
hc25        1.100719
hcc25       109.259
dih25        65.654
hc26        1.097139
hcc26       110.697
dih26        61.745
hc27        1.096061
hcc27       110.712
dih27       -57.688
hc28        1.093238
hcc28       111.762
dih28      -178.585
 
 
 

