$RunGaus
%mem=8000Mb
%nproc=4
# mp2/cc-pVTZ

ethanol_a_single_point

0 1 
 c
 c   1 cc2     
 o    2 oc3         1 occ3      
 h    3 ho4         2 hoc4          1 dih4   
 h    2 hc5         3 hco5          4 dih5   
 h    2 hc6         3 hco6          4 dih6   
 h    1 hc7         2 hcc7          3 dih7   
 h    1 hc8         2 hcc8          3 dih8   
 h    1 hc9         2 hcc9          3 dih9   
 
cc2         1.519102
oc3         1.431565
occ3        107.957
ho4         0.965328
hoc4        109.235
dih4       -179.988
hc5         1.100468
hco5        110.386
dih5         59.583
hc6         1.100468
hco6        110.387
dih6        -59.559
hc7         1.094483
hcc7        110.517
dih7         59.920
hc8         1.094484
hcc8        110.517
dih8        -59.918
hc9         1.095427
hcc9        110.377
dih9       -179.999
 
 
 

