$RunGaus
%mem=8000Mb
%nproc=4
# mp2/cc-pVTZ

ethyl_methyl_ether_a_single_point

0 1 
 c
 c   1 cc2     
 o    2 oc3         1 occ3      
 c    3 co4         2 coc4          1 dih4   
 h    1 hc5         2 hcc5          3 dih5   
 h    1 hc6         2 hcc6          3 dih6   
 h    2 hc7         3 hco7          4 dih7   
 h    4 hc8         3 hco8          2 dih8   
 h    4 hc9         3 hco9          2 dih9   
 h    4 hc10        3 hco10         2 dih10  
 h    1 hc11        2 hcc11         3 dih11  
 h    2 hc12        3 hco12         4 dih12  
 
cc2         1.519414
oc3         1.421029
occ3        108.763
co4         1.414656
coc4        113.090
dih4        179.990
hc5         1.095330
hcc5        110.243
dih5        179.998
hc6         1.094325
hcc6        110.617
dih6        -60.003
hc7         1.103315
hco7        109.753
dih7         58.861
hc8         1.092336
hco8        107.197
dih8       -179.998
hc9         1.101441
hco9        111.488
dih9        -60.747
hc10        1.101441
hco10       111.488
dih10        60.751
hc11        1.094326
hcc11       110.616
dih11        59.999
hc12        1.103317
hco12       109.753
dih12       -58.880
 
 
 

