$RunGaus
%mem=8000Mb
%nproc=4
# mp2/cc-pVTZ

ethyl_methyl_ether_g_single_point

0 1 
 c
 c   1 cc2     
 o    2 oc3         1 occ3      
 c    3 co4         2 coc4          1 dih4   
 h    1 hc5         2 hcc5          3 dih5   
 h    1 hc6         2 hcc6          3 dih6   
 h    2 hc7         3 hco7          4 dih7   
 h    4 hc8         3 hco8          2 dih8   
 h    4 hc9         3 hco9          2 dih9   
 h    4 hc10        3 hco10         2 dih10  
 h    1 hc11        2 hcc11         3 dih11  
 h    2 hc12        3 hco12         4 dih12  
 
cc2         1.528443
oc3         1.424560
occ3        113.852
co4         1.416387
coc4        114.499
dih4         75.036
hc5         1.096142
hcc5        109.871
dih5        175.656
hc6         1.094764
hcc6        112.170
dih6        -64.780
hc7         1.102846
hco7        109.589
dih7        -49.179
hc8         1.092487
hco8        106.826
dih8        174.394
hc9         1.099258
hco9        112.476
dih9        -66.533
hc10        1.101552
hco10       111.232
dih10        55.664
hc11        1.094723
hcc11       110.470
dih11        56.224
hc12        1.094601
hco12       105.068
dih12      -164.590
 
 
 

