$RunGaus
%mem=8000Mb
%nproc=4
# mp2/cc-pVTZ

isopropanol_g_single_point

0 1 
 c
 c   1 cc2     
 o    2 oc3         1 occ3      
 c    2 cc4         3 cco4          1 dih4   
 h    1 hc5         2 hcc5          4 dih5   
 h    1 hc6         2 hcc6          4 dih6   
 h    1 hc7         2 hcc7          4 dih7   
 h    2 hc8         1 hcc8          5 dih8   
 h    4 hc9         2 hcc9          1 dih9   
 h    4 hc10        2 hcc10         1 dih10  
 h    4 hc11        2 hcc11         1 dih11  
 h    3 ho12        2 hoc12         1 dih12  
 
cc2         1.523495
oc3         1.437155
occ3        106.279
cc4         1.529615
cco4        111.159
dih4        122.999
hc5         1.093889
hcc5        110.386
dih5       -178.861
hc6         1.095424
hcc6        110.292
dih6        -59.278
hc7         1.095006
hcc7        110.647
dih7         60.930
hc8         1.102249
hcc8        108.764
dih8         60.255
hc9         1.097045
hcc9        111.193
dih9        179.313
hc10        1.095909
hcc10       110.857
dih10       -61.126
hc11        1.095457
hcc11       110.378
dih11        59.210
ho12        0.966163
hoc12       108.917
dih12      -178.977
 
 
 

