$RunGaus
%mem=8000Mb
%nproc=4
# mp2/cc-pVTZ

isopropanol_a_single_point

0 1 
 c
 c   1 cc2     
 o    2 oc3         1 occ3      
 c    2 cc4         3 cco4          1 dih4   
 h    1 hc5         2 hcc5          4 dih5   
 h    1 hc6         2 hcc6          4 dih6   
 h    1 hc7         2 hcc7          4 dih7   
 h    2 hc8         1 hcc8          5 dih8   
 h    4 hc9         2 hcc9          1 dih9   
 h    4 hc10        2 hcc10         1 dih10  
 h    4 hc11        2 hcc11         1 dih11  
 h    3 ho12        2 hoc12         1 dih12  
 
cc2         1.529905
oc3         1.435602
occ3        111.103
cc4         1.529901
cco4        111.103
dih4        126.299
hc5         1.093975
hcc5        110.447
dih5       -179.340
hc6         1.098106
hcc6        110.802
dih6        -59.375
hc7         1.095894
hcc7        111.047
dih7         60.209
hc8         1.096150
hcc8        108.958
dih8         59.605
hc9         1.093977
hcc9        110.446
dih9        179.346
hc10        1.095894
hcc10       111.048
dih10       -60.204
hc11        1.098104
hcc11       110.803
dih11        59.382
ho12        0.967439
hoc12       108.538
dih12       -63.140
 
 
 

