$RunGaus
%mem=8000Mb
%nproc=4
# mp2/cc-pVTZ

Me_acetate_E_single_point

0 1 
 c
 c   1 cc2     
 o    2 oc3         1 occ3      
 c    3 co4         2 coc4          1 dih4   
 o    2 oc5         3 oco5          4 dih5   
 h    4 hc6         3 hco6          2 dih6   
 h    4 hc7         3 hco7          2 dih7   
 h    4 hc8         3 hco8          2 dih8   
 h    1 hc9         2 hcc9          5 dih9   
 h    1 hc10        2 hcc10         5 dih10  
 h    1 hc11        2 hcc11         5 dih11  
 
cc2         1.515834
oc3         1.362244
occ3        118.040
co4         1.432761
coc4        121.449
dih4         -0.023
oc5         1.209178
oco5        118.497
dih5        179.914
hc6         1.090197
hco6        105.413
dih6       -179.911
hc7         1.094832
hco7        111.617
dih7        -61.572
hc8         1.094847
hco8        111.615
dih8         61.751
hc9         1.094884
hcc9        111.274
dih9       -119.972
hc10        1.089170
hcc10       108.110
dih10         0.054
hc11        1.094895
hcc11       111.285
dih11       120.093
 
 
 

