$RunGaus
%mem=8000Mb
%nproc=4
# mp2/cc-pVTZ

Me_acetate_Z_lp_single_point

0 1 
 c
 c   1 cc2     
 o    2 oc3         1 occ3      
 c    3 co4         2 coc4          1 dih4   
 o    2 oc5         3 oco5          4 dih5   
 h    4 hc6         3 hco6          2 dih6   
 h    4 hc7         3 hco7          2 dih7   
 h    4 hc8         3 hco8          2 dih8   
 h    1 hc9         2 hcc9          5 dih9   
 h    1 hc10        2 hcc10         5 dih10  
 h    1 hc11        2 hcc11         5 dih11  
 
cc2         1.508471
oc3         1.354688
occ3        111.182
co4         1.440363
coc4        115.960
dih4        179.998
oc5         1.214084
oco5        123.156
dih5          0.001
hc6         1.089665
hco6        105.423
dih6       -179.986
hc7         1.092924
hco7        110.440
dih7        -60.341
hc8         1.092925
hco8        110.439
dih8         60.372
hc9         1.094368
hcc9        110.003
dih9        120.976
hc10        1.094375
hcc10       110.000
dih10      -120.962
hc11        1.089762
hcc11       109.433
dih11         0.004
 
 
 

