$RunGaus
%mem=8000Mb
%nproc=4
# mp2/cc-pVTZ

Me_formate_E_single_point

0 1 
 c
 o   1 oc2     
 c    2 co3         1 coc3      
 o    3 oc4         2 oco4          1 dih4   
 h    3 hc5         2 hco5          1 dih5   
 h    1 hc6         2 hco6          3 dih6   
 h    1 hc7         2 hco7          3 dih7   
 h    1 hc8         2 hco8          3 dih8   
 
oc2         1.438861
co3         1.348236
coc3        116.740
oc4         1.202870
oco4        122.739
dih4       -179.997
hc5         1.106614
hco5        113.568
dih5          0.003
hc6         1.089292
hco6        105.728
dih6       -179.959
hc7         1.094851
hco7        110.981
dih7        -61.335
hc8         1.094850
hco8        110.979
dih8         61.416
 
 
 

