$RunGaus
%mem=8000Mb
%nproc=4
# mp2/cc-pVTZ

Me_formate_Z_lp_single_point

0 1 
 c
 o   1 oc2     
 c    2 co3         1 coc3      
 o    3 oc4         2 oco4          1 dih4   
 h    1 hc5         2 hco5          3 dih5   
 h    1 hc6         2 hco6          3 dih6   
 h    1 hc7         2 hco7          3 dih7   
 h    3 hc8         2 hco8          1 dih8   
 
oc2         1.444612
co3         1.342222
coc3        116.003
oc4         1.209136
oco4        125.768
dih4          0.001
hc5         1.089041
hco5        105.353
dih5        179.993
hc6         1.092628
hco6        110.225
dih6        -60.362
hc7         1.092619
hco7        110.225
dih7         60.349
hc8         1.099372
hco8        109.295
dih8        179.999
 
 
 

