$RunGaus
%mem=8000Mb
%nproc=4
# mp2/cc-pVTZ

Me_formate_Z_single_point

0 1 
 c
 o   1 oc2     
 c    2 co3         1 coc3      
 o    3 oc4         2 oco4          1 dih4   
 h    3 hc5         2 hco5          1 dih5   
 h    1 hc6         2 hco6          3 dih6   
 h    1 hc7         2 hco7          3 dih7   
 h    1 hc8         2 hco8          3 dih8   
 
oc2         1.444341
co3         1.342626
coc3        115.984
oc4         1.209143
oco4        125.736
dih4          0.003
hc5         1.099247
hco5        109.325
dih5        179.999
hc6         1.089147
hco6        105.408
dih6        179.992
hc7         1.092635
hco7        110.212
dih7        -60.344
hc8         1.092629
hco8        110.212
dih8         60.324
 
 
 

