$RunGaus
%mem=8000Mb
%nproc=4
# mp2/cc-pVTZ

me_vinyl_ether_g_single_point

0 1 
 c
 c   1 cc2     
 o    2 oc3         1 occ3      
 c    3 co4         2 coc4          1 dih4   
 h    1 hc5         2 hcc5          3 dih5   
 h    1 hc6         2 hcc6          3 dih6   
 h    2 hc7         3 hco7          4 dih7   
 h    4 hc8         3 hco8          2 dih8   
 h    4 hc9         3 hco9          2 dih9   
 h    4 hc10        3 hco10         2 dih10  
 
cc2         1.335564
oc3         1.363564
occ3        122.477
co4         1.424400
coc4        115.656
dih4       -173.310
hc5         1.083007
hcc5        119.674
dih5       -178.715
hc6         1.084641
hcc6        121.544
dih6          0.899
hc7         1.090506
hco7        115.305
dih7          7.465
hc8         1.090848
hco8        106.504
dih8       -176.816
hc9         1.097957
hco9        111.166
dih9        -57.966
hc10        1.097675
hco10       111.166
dih10        64.247
 
 
 

