$RunGaus
%mem=8000Mb
%nproc=4
# mp2/cc-pVTZ

methyl_glycolate_sk_single_point

0 1 
 c
 o   1 oc2     
 c    2 co3         1 coc3      
 o    3 oc4         2 oco4          1 dih4   
 c    3 cc5         2 cco5          1 dih5   
 o    5 oc6         3 occ6          2 dih6   
 h    5 hc7         3 hcc7          2 dih7   
 h    5 hc8         3 hcc8          2 dih8   
 h    6 ho9         5 hoc9          3 dih9   
 h    1 hc10        2 hco10         3 dih10  
 h    1 hc11        2 hco11         3 dih11  
 h    1 hc12        2 hco12         3 dih12  
 
oc2         1.442312
co3         1.336788
coc3        115.765
oc4         1.216242
oco4        124.584
dih4         -0.001
cc5         1.520037
cco5        114.049
dih5       -179.999
oc6         1.415552
occ6        112.325
dih6         -0.008
hc7         1.099398
hcc7        106.101
dih7        122.945
hc8         1.099396
hcc8        106.101
dih8       -122.960
ho9         0.965441
hoc9        108.523
dih9       -179.984
hc10        1.089246
hco10       105.225
dih10       179.994
hc11        1.092457
hco11       110.315
dih11       -60.405
hc12        1.092454
hco12       110.316
dih12        60.391
 
 
 

