$RunGaus
%mem=8000Mb
%nproc=4
# mp2/cc-pVTZ

propanal_skew_single_point

0 1 
 c
 c   1 cc2     
 c    2 cc3         1 ccc3      
 o    3 oc4         2 occ4          1 dih4   
 h    3 hc5         2 hcc5          1 dih5   
 h    2 hc6         3 hcc6          4 dih6   
 h    2 hc7         3 hcc7          4 dih7   
 h    1 hc8         2 hcc8          3 dih8   
 h    1 hc9         2 hcc9          3 dih9   
 h    1 hc10        2 hcc10         3 dih10  
 
cc2         1.538412
cc3         1.509823
ccc3        112.054
oc4         1.213846
occ4        125.021
dih4       -127.507
hc5         1.114399
hcc5        115.035
dih5         52.391
hc6         1.094083
hcc6        108.681
dih6         -3.329
hc7         1.100520
hcc7        106.929
dih7        112.855
hc8         1.093796
hcc8        110.544
dih8       -175.749
hc9         1.095823
hcc9        111.412
dih9        -56.046
hc10        1.094738
hcc10       111.155
dih10        64.434
 
 
 

