$RunGaus
%mem=8000Mb
%nproc=4
# mp2/cc-pVTZ

propanal_eclipsed_single_point

0 1 
 c
 c   1 cc2     
 c    2 cc3         1 ccc3      
 o    3 oc4         2 occ4          1 dih4   
 h    3 hc5         2 hcc5          1 dih5   
 h    2 hc6         3 hcc6          4 dih6   
 h    2 hc7         3 hcc7          4 dih7   
 h    1 hc8         2 hcc8          3 dih8   
 h    1 hc9         2 hcc9          3 dih9   
 h    1 hc10        2 hcc10         3 dih10  
 
cc2         1.527538
cc3         1.509937
ccc3        114.715
oc4         1.213993
occ4        124.992
dih4         -0.006
hc5         1.113129
hcc5        114.982
dih5        179.994
hc6         1.101031
hcc6        106.716
dih6        124.272
hc7         1.101029
hcc7        106.717
dih7       -124.285
hc8         1.094045
hcc8        110.564
dih8       -179.998
hc9         1.093594
hcc9        110.968
dih9        -59.624
hc10        1.093592
hcc10       110.968
dih10        59.626
 
 
 

