$RunGaus
%mem=8000Mb
%nproc=4
# mp2/cc-pVTZ

propen_3_ol_skew_g_plus_single_point

0 1 
 c
 c   1 cc2     
 c    2 cc3         1 ccc3      
 o    3 oc4         2 occ4          1 dih4   
 h    1 hc5         2 hcc5          3 dih5   
 h    1 hc6         2 hcc6          3 dih6   
 h    2 hc7         3 hcc7          4 dih7   
 h    3 hc8         2 hcc8          1 dih8   
 h    3 hc9         2 hcc9          1 dih9   
 h    4 ho10        3 hoc10         2 dih10  
 
cc2         1.336705
cc3         1.503233
ccc3        124.179
oc4         1.432514
occ4        112.279
dih4       -122.973
hc5         1.086181
hcc5        121.831
dih5       -179.927
hc6         1.088331
hcc6        121.473
dih6         -0.565
hc7         1.089941
hcc7        115.630
dih7         56.186
hc8         1.099963
hcc8        110.229
dih8          1.382
hc9         1.095396
hcc9        110.611
dih9        120.483
ho10        0.966870
hoc10       108.256
dih10        56.957
 
 
 

