$RunGaus
%mem=8000Mb
%nproc=4
# mp2/cc-pVTZ

propen_3_ol_syn_a_single_point

0 1 
 c
 c   1 cc2     
 c    2 cc3         1 ccc3      
 o    3 oc4         2 occ4          1 dih4   
 h    1 hc5         2 hcc5          3 dih5   
 h    1 hc6         2 hcc6          3 dih6   
 h    2 hc7         3 hcc7          4 dih7   
 h    3 hc8         2 hcc8          1 dih8   
 h    3 hc9         2 hcc9          1 dih9   
 h    4 ho10        3 hoc10         2 dih10  
 
cc2         1.334493
cc3         1.500488
ccc3        125.384
oc4         1.423312
occ4        110.418
dih4          0.006
hc5         1.085804
hcc5        120.997
dih5        179.999
hc6         1.085005
hcc6        121.212
dih6         -0.001
hc7         1.089954
hcc7        114.380
dih7       -179.995
hc8         1.102948
hcc8        108.974
dih8        121.855
hc9         1.102949
hcc9        108.974
dih9       -121.843
ho10        0.964674
hoc10       108.973
dih10      -179.991
 
 
 

