$RunGaus
%mem=2000Mb
%nproc=4
%rwf=/pub/tmp/
%NoSave
# mp2/cc-pVTZ

tgctgr180180_single_point

0 1
 C              
 H                  1            B1
 O                  1            B2    2            A1
 C                  1            B3    3            A2    2            D1    0
 C                  1            B4    3            A3    4            D2    0
 C                  5            B5    1            A4    3            D3    0
 H                  5            B6    1            A5    3            D4    0
 O                  5            B7    1            A6    3            D5    0
 O                  4            B8    1            A7    3            D6    0
 C                  4            B9    1            A8    3            D7    0
 H                  4           B10    1            A9    3            D8    0
 H                 10           B11    4           A10    1            D9    0
 C                  8           B12    5           A11    1           D10    0
 O                 10           B13    4           A12    1           D11    0
 O                 13           B14    8           A13    5           D12    0
 H                 13           B15    8           A14    5           D13    0
 C                 15           B16   13           A15    8           D14    0
 H                 17           B17   15           A16   13           D15    0
 O                 17           B18   15           A17   13           D16    0
 C                 17           B19   15           A18   13           D17    0
 C                 19           B20   17           A19   15           D18    0
 O                 20           B21   17           A20   15           D19    0
 C                 20           B22   17           A21   15           D20    0
 H                 20           B23   17           A22   15           D21    0
 H                 23           B24   20           A23   17           D22    0
 O                 23           B25   20           A24   17           D23    0
 H                 21           B26   19           A25   17           D24    0
 C                 21           B27   19           A26   17           D25    0
 C                 23           B28   20           A27   17           D26    0
 O                 29           B29   23           A28   20           D27    0
 H                 29           B30   23           A29   20           D28    0
 H                  6           B31    5           A30    1           D29    0
 O                  6           B32    5           A31    1           D30    0
 H                  6           B33    5           A32    1           D31    0
 O                 28           B34   21           A33   19           D32    0
 H                 28           B35   21           A34   19           D33    0
 H                 28           B36   21           A35   19           D34    0
 H                 33           B37    6           A36    5           D35    0
 H                 35           B38   28           A37   21           D36    0
 H                 14           B39   10           A38    4           D37    0
 H                  9           B40    4           A39    1           D38    0
 H                  3           B41    1           A40    4           D39    0
 H                 22           B42   20           A41   17           D40    0
 H                 26           B43   23           A42   20           D41    0
 H                 30           B44   29           A43   23           D42    0

   B1             1.10095898
   B2             1.42929825
   B3             1.52258246
   B4             1.53345888
   B5             1.53160377
   B6             1.09616633
   B7             1.44234307
   B8             1.42756581
   B9             1.52582580
   B10            1.09929443
   B11            1.10087713
   B12            1.40346148
   B13            1.42321301
   B14            1.43197575
   B15            1.09222171
   B16            1.42339156
   B17            1.09205573
   B18            1.40911259
   B19            1.54255864
   B20            1.43977117
   B21            1.43198577
   B22            1.52217817
   B23            1.09896301
   B24            1.09877340
   B25            1.42787824
   B26            1.09612144
   B27            1.52717573
   B28            1.52661074
   B29            1.42250003
   B30            1.10239988
   B31            1.10132821
   B32            1.41949985
   B33            1.09325056
   B34            1.43533345
   B35            1.09616407
   B36            1.09828801
   B37            0.97017656
   B38            0.96482672
   B39            0.97296564
   B40            0.96784231
   B41            0.96843916
   B42            0.96970250
   B43            0.96804150
   B44            0.97142475
   A1           109.64271147
   A2           111.37923177
   A3           108.55389591
   A4           113.23315850
   A5           109.73277979
   A6           108.55086303
   A7           107.19649838
   A8           109.77349541
   A9           109.06431462
   A10          108.40455141
   A11          115.69396574
   A12          106.95178049
   A13          106.65752980
   A14          105.42441809
   A15          123.88794504
   A16          110.54105301
   A17          106.35696804
   A18          115.38152134
   A19          115.51317594
   A20          111.15019678
   A21          110.56595273
   A22          106.03745939
   A23          109.84426145
   A24          106.56219069
   A25          110.11294948
   A26          104.20699876
   A27          110.21501388
   A28          106.23117916
   A29          108.60363042
   A30          109.57849133
   A31          112.17487734
   A32          108.56223923
   A33          107.82460571
   A34          109.16643985
   A35          109.20948574
   A36          107.84707335
   A37          109.69668108
   A38          109.51842106
   A39          107.89551204
   A40          107.68118371
   A41          107.04926671
   A42          107.85552490
   A43          107.77545837
   D1           120.09936430
   D2           121.28182020
   D3            62.58897934
   D4           -59.15686053
   D5          -179.27040702
   D6           -62.26703102
   D7           176.17823790
   D8            56.60417720
   D9            62.45525905
   D10           61.01299900
   D11         -179.00386726
   D12           65.20193864
   D13         -177.86239924
   D14          175.75728559
   D15           70.61337597
   D16         -175.16148446
   D17          -55.52825526
   D18           63.22903366
   D19           62.89618709
   D20          -61.25969452
   D21         -178.93774194
   D22           63.35797659
   D23         -177.82434141
   D24          -60.04392865
   D25         -177.77043784
   D26          -55.85074453
   D27          175.74193570
   D28          -65.49695732
   D29           50.96463378
   D30          -73.45392918
   D31          168.56718099
   D32         -176.71832559
   D33           62.60447654
   D34          -56.26378301
   D35           50.18107781
   D36         -179.55895693
   D37          169.23257372
   D38         -174.94121928
   D39           51.27188373
   D40         -171.68628577
   D41          177.07932505
   D42         -169.17937423

