$RunGaus
%mem=8000Mb
%nproc=4
# mp2/cc-pVTZ

THP_F_eq_single_point

0 1 
 o
 c   1 co2     
 c    2 cc3         1 cco3      
 c    3 cc4         2 ccc4          1 dih4   
 c    4 cc5         3 ccc5          2 dih5   
 c    5 cc6         4 ccc6          3 dih6   
 f    6 fc7         5 fcc7          4 dih7   
 h    3 hc8         4 hcc8          5 dih8   
 h    3 hc9         4 hcc9          5 dih9   
 h    4 hc10        3 hcc10         2 dih10  
 h    4 hc11        3 hcc11         2 dih11  
 h    5 hc12        4 hcc12         3 dih12  
 h    5 hc13        4 hcc13         3 dih13  
 h    2 hc14        3 hcc14         4 dih14  
 h    2 hc15        3 hcc15         4 dih15  
 h    6 hc16        5 hcc16         4 dih16  
 
co2         1.433743
cc3         1.529498
cco3        111.370
cc4         1.536518
ccc4        110.161
dih4        -54.835
cc5         1.539865
ccc5        110.319
dih5         51.241
cc6         1.520836
ccc6        109.785
dih6        -51.487
fc7         1.385782
fcc7        110.054
dih7        173.799
hc8         1.097043
hcc8        109.935
dih8        -68.748
hc9         1.096947
hcc9        110.908
dih9        172.584
hc10        1.099384
hcc10       109.393
dih10       -69.265
hc11        1.095251
hcc11       110.928
dih11       173.523
hc12        1.095454
hcc12       111.368
dih12      -172.904
hc13        1.096325
hcc13       110.624
dih13        66.995
hc14        1.092318
hcc14       112.066
dih14      -172.583
hc15        1.103181
hcc15       110.376
dih15        66.888
hc16        1.103390
hcc16       112.035
dih16       -67.754
 
 
 

