$RunGaus
%mem=8000Mb
%nproc=4
# mp2/cc-pVTZ

vinyl_alcohol_s_cis_single_point

0 1 
 c
 c   1 cc2     
 o    2 oc3         1 occ3      
 h    3 ho4         2 hoc4          1 dih4   
 h    1 hc5         2 hcc5          3 dih5   
 h    1 hc6         2 hcc6          3 dih6   
 h    2 hc7         1 hcc7          5 dih7   
 
cc2         1.336325
oc3         1.364862
occ3        126.913
ho4         0.967928
hoc4        109.840
dih4          0.005
hc5         1.083194
hcc5        119.871
dih5       -179.999
hc6         1.087187
hcc6        122.453
dih6          0.000
hc7         1.085619
hcc7        122.833
dih7          0.001
 
 
 

