$RunGaus
%mem=8000Mb
%nproc=4
# b3lyp/6-31+g(d,p)

2-(1-Ad)-N-Meax-pip.hin

0  1
C          -2.78484         0.33768        -1.30368
C          -2.94541         1.85697        -1.14764
C          -1.55295         2.50493        -1.15773
C          -1.94732        -0.21357        -0.13789
C          -0.71018         1.93379        -0.00370
C          -0.52349         0.39349        -0.12281
C          -2.07946         0.02140        -2.63246
C           0.15899         0.14903        -1.48822
C          -0.69633         0.69189        -2.64706
C          -0.85760         2.21224        -2.49570
C           0.28519        -0.13273         1.10980
C           1.78301         0.24489         1.09677
C           2.44782        -0.06147         2.44638
C           2.18768        -1.51668         2.84864
N           0.08625        -1.54378         1.47230
C           0.68337        -1.81611         2.77895
Xx         -0.50663        -1.62629         1.53227
H          -3.79567        -0.14144        -1.29701
H          -3.47517         2.09360        -0.19451
H          -3.57058         2.26775        -1.97556
H          -1.66088         3.61134        -1.03263
H          -1.91272        -1.32107        -0.23731
H          -2.46178        -0.00245         0.82906
H          -1.20782         2.19471         0.95990
H           0.27407         2.45503         0.00120
H          -2.69318         0.38798        -3.48919
H          -1.97317        -1.08202        -2.75999
H           0.34613        -0.92997        -1.67053
H           1.15584         0.64557        -1.52122
H          -0.18939         0.47232        -3.61985
H          -1.45559         2.62531        -3.34234
H           0.13917         2.71258        -2.53071
H          -0.15492         0.44143         1.96028
H           1.92172         1.33035         0.88668
H           2.32596        -0.29773         0.29024
H           2.02825         0.61699         3.22743
H           3.54562         0.13707         2.39664
H           2.56629        -1.69710         3.88360
H           2.75675        -2.20448         2.18047
H           0.49243        -2.87511         3.07625
H           0.15787        -1.20674         3.55309
C           0.54999        -2.51674         0.49231
H           0.45643        -3.55270         0.89177
H          -0.09011        -2.51732        -0.41433
H           1.60806        -2.36422         0.18734



