$RunGaus
%mem=8000Mb
%nproc=4
# b3lyp/6-31+g(d,p)

acetone.hin

0  1
C          -1.26578        -1.13057        -0.03887
C          -1.31812         0.38553        -0.03203
O          -2.36805         0.98456        -0.09462
C           0.01032         1.11192         0.05522
H          -0.68232        -1.49746         0.83579
H          -2.28801        -1.57020         0.01638
H          -0.78108        -1.48991        -0.97514
H           0.49407         0.90575         1.03696
H           0.68696         0.77091        -0.76079
H          -0.12749         2.21316        -0.04338





