%mem=2000MB
%nprocshared=4
%rwf=/pub/tmp/
%NoSave
# opt=modredundant b3lyp/6-31+g(d,p)

bicyclooctyl-CMe2Cl-ts

0 1
 C              
 C                  1    1.54054958
 C                  1    1.53307893    2  109.56551755
 C                  2    1.55311976    1  112.80144776    3   12.29791716    0
 C                  3    1.53285975    1  108.70808470    2   51.84198730    0
 C                  5    1.53951291    3  109.45728618    1  -66.15331813    0
 C                  3    1.53207376    1  108.61780050    2  -65.99493360    0
 C                  7    1.53981038    3  109.40230850    1   52.09557057    0
 C                  4    1.58797670    2  113.46871811    1  171.84405215    0
 C                  9    1.54964964    4  113.73018353    2    4.31149615    0
 Cl                 9    1.82622534    4  112.65317547    2  121.95495938    0
 C                  9    1.54749152    4  115.04474938    2 -117.81392623    0
 H                  1    1.11663692    3  109.04044016    7   55.56286725    0
 H                  1    1.11649675    3  110.46687055    7  172.10925900    0
 H                  2    1.11525109    1  108.77525213    3 -109.03984602    0
 H                  2    1.11360047    1  107.18049489    3  134.78945539    0
 H                  3    1.11836532    1  110.29099090    2  172.94667772    0
 H                  5    1.11637180    3  110.49616210    1  171.99691791    0
 H                  5    1.11693285    3  109.00670025    1   55.40440623    0
 H                  6    1.11558281    5  109.12889096    3 -108.84653204    0
 H                  6    1.11474706    5  106.85347089    3  134.79275518    0
 H                  7    1.11698030    3  110.47092224    1  -69.80215999    0
 H                  7    1.11720857    3  109.09606129    1  173.70291070    0
 H                  8    1.11471970    7  108.71838257    3 -109.34872034    0
 H                  8    1.11420555    7  107.06182216    3  134.67498136    0
 H                 10    1.11526365    9  112.24809254    4  176.77516078    0
 H                 10    1.11313746    9  111.95929967    4  -65.48478027    0
 H                 10    1.11334496    9  112.53470377    4   57.37926493    0
 H                 12    1.11434734    9  112.01706780    4  177.80900776    0
 H                 12    1.11352818    9  112.86662273    4  -63.33211824    0
 H                 12    1.11313746    9  111.70025209    4   59.60953079    0

D 11 9 4 6 F

