# b3lyp/6-31+g(d,p)

cyclohexane_sofa_b3lyp

0 1
 C                 -0.88258333   -0.63518750    1.02670833
 C                 -1.23258333    0.75181250    0.45370833
 C                 -0.35458333    1.26981250   -0.69129167
 C                  0.31441667   -1.41118750    0.44570833
 C                  1.08441667   -0.74318750   -0.69829167
 C                  1.08941667    0.78081250   -0.56129167
 H                 -0.78558333   -0.56918750    2.13870833
 H                 -1.78358333   -1.27818750    0.87770833
 H                 -2.30858333    0.80981250    0.16070833
 H                 -1.12258333    1.48381250    1.29070833
 H                 -0.77458333    0.91681250   -1.66329167
 H                 -0.38458333    2.38581250   -0.72729167
 H                  1.04541667   -1.54718750    1.27970833
 H                  0.02041667   -2.44718750    0.14970833
 H                  2.13141667   -1.13118750   -0.74029167
 H                  0.61141667   -1.02118750   -1.67029167
 H                  1.52241667    1.08781250    0.41970833
 H                  1.71741667    1.23281250   -1.36729167

 1 2 1.0 4 1.0 7 1.0 8 1.0
 2 3 1.0 9 1.0 10 1.0
 3 6 1.0 11 1.0 12 1.0
 4 5 1.0 13 1.0 14 1.0
 5 6 1.0 15 1.0 16 1.0
 6 17 1.0 18 1.0
 7
 8
 9
 10
 11
 12
 13
 14
 15
 16
 17
 18

