$RunGaus
%mem=8000Mb
%nproc=4
# b3lyp/6-31+g(d,p)

dimethilsulfide-g.hin

0  1
C          -0.61222        -1.22192         0.22922
S          -0.88788         0.39243        -0.49771
C          -2.41977         1.16757         0.01515
H           0.35369        -1.63810        -0.13452
H          -0.57839        -1.13437         1.33821
H          -1.43844        -1.91002        -0.05810
H          -2.42195         1.30203         1.11996
H          -2.52042         2.16182        -0.47457
H          -3.28177         0.52696        -0.27682
Xx          0.03390         1.11655        -0.19794
Xx         -0.89265         0.28090        -1.70246

