%mem=2000MB
%nprocshared=4
%rwf=/pub/tmp/
%NoSave
# b3lyp/6-31+g(d,p)

diMe-sulfone

0 1
 C              
 S                  1            B1
 C                  2            B2    1            A1
 O                  2            B3    1            A2    3            D1    0
 O                  2            B4    1            A3    4            D2    0
 H                  1            B5    2            A4    4            D3    0
 H                  1            B6    2            A5    4            D4    0
 H                  3            B7    2            A6    1            D5    0
 H                  3            B8    2            A7    1            D6    0
 H                  3            B9    2            A8    1            D7    0
 H                  1           B10    2            A9    4            D8    0

   B1             1.77315170
   B2             1.77315242
   B3             1.43850302
   B4             1.43850302
   B5             1.08146549
   B6             1.08146549
   B7             1.08214742
   B8             1.08146683
   B9             1.08146683
   B10            1.08215292
   A1           104.56527681
   A2           107.85322077
   A3           107.85322077
   A4           109.54517773
   A5           109.54517773
   A6           106.27735522
   A7           109.54537717
   A8           109.54537717
   A9           106.27776553
   D1           114.61358001
   D2           130.77283997
   D3           175.89264560
   D4            53.33451443
   D5           180.00000000
   D6           -61.27953328
   D7            61.27953328
   D8           -65.38641999

