$RunGaus
%mem=8000Mb
%nproc=4
# b3lyp/6-31+g(d,p)

dimethilsulfide-ecl.hin

0  1
C          -0.61052        -1.22299         0.23006
S          -0.88967         0.39191        -0.49523
C          -2.42152         1.16936         0.01410
H           0.33186        -1.21115         0.82192
H          -1.45755        -1.49226         0.89995
H          -0.52625        -1.98683        -0.57490
H          -2.42557         1.30589         1.11866
H          -2.51993         2.16303        -0.47725
H          -3.28407         0.52987        -0.27877
Xx          0.03204         1.11658        -0.19649
Xx         -0.89167         0.28161        -1.70013

