$RunGaus
%mem=8000Mb
%nproc=4
# b3lyp/6-31+g(d,p)

ethanethiol-g.hin

0  1
C          -0.38646        -1.34545        -0.15440
S          -0.31211         0.54167        -0.36905
Xx          0.84295         0.87412        -0.23018
Xx         -0.55584         0.77896        -1.53017
H          -1.06050         1.37819         0.37173
H          -1.42620        -1.70458        -0.33466
H           0.28651        -1.83381        -0.89679
C           0.05988        -1.68211         1.27290
H           0.03301        -2.78356         1.44208
H           1.10326        -1.34097         1.46725
H          -0.60791        -1.21269         2.03215

