$RunGaus
%mem=8000Mb
%nproc=4
# b3lyp/6-31+g(d,p)

Me-NH2-ecl.hin

0  1
C          -1.40516        -0.37753        -0.00974
N          -1.45697         1.05965        -0.09975
Xx         -2.00916         1.24997        -0.24033
H          -0.65091        -0.76964        -0.72907
H          -1.11739        -0.67753         1.02335
H          -2.40152        -0.81268        -0.25355
H          -1.17038         1.49078         0.77849
H          -0.79847         1.40572        -0.79683

