$RunGaus
%mem=8000Mb
%nproc=4
# b3lyp/6-31+g(d,p)

methylformate-C=O-Lp-g.hin

0  1
C          -1.67881         0.70996        -0.02886
O          -1.68020         1.76801        -0.61396
O          -0.58024         0.02427         0.38612
C           0.66783         0.62260         0.09597
H          -2.60202         0.14817         0.25173
H           0.79626         0.72607        -1.00806
H           0.74376         1.61554         0.60034
H           1.46988        -0.04431         0.49095
Xx         -0.61141        -0.46212         0.03462
Xx         -0.64232         0.06207         0.98262

