%Mem=105Gb
%NProcShared=24
# opt b3lyp/6-31+g(d,p)

methanethiol-g

0 1
 C                 -1.15442900    0.02017800    0.00000000
 S                  0.66010600   -0.08651900    0.00000000
 H                  0.92204300    1.21476300    0.00000800
 H                 -1.51671300    0.52265700   -0.88614400
 H                 -1.52373300   -0.99657200   -0.00015400
 H                 -1.51672000    0.52238200    0.88629800

