$RunGaus
%mem=8000Mb
%nproc=4
# b3lyp/6-31+g(d,p)

N-methylpyrrolidine-nlp.hin

0  1
C           0.67142        -0.02573         0.77943
C          -0.28454        -1.23385         0.78775
C          -1.35487        -0.87731        -0.25525
C           0.07135         0.92509        -0.26768
N          -1.33127         0.56931        -0.28757
C          -2.08697         1.15983        -1.36901
H          -0.75034        -1.35111         1.79574
H           0.23585        -2.18753         0.53195
H          -2.36758        -1.25284         0.02255
H          -1.07114        -1.29194        -1.25267
H           0.53341         0.73582        -1.26665
H           0.20582         1.99933         0.00012
H          -1.69586         0.84350        -2.36360
H          -3.15598         0.85845        -1.28723
H          -2.03892         2.27015        -1.29696
H           1.71748        -0.31509         0.51907
H           0.68517         0.46308         1.78325

