$RunGaus
%mem=8000Mb
%nproc=4
# b3lyp/6-31+g(d,p)

N-methylpyrrolidine-ts.hin

0  1
C           0.56478         0.03329         0.89863
C          -0.13491        -1.29676         0.57657
C          -1.46894        -0.84507        -0.03705
C           0.13543         0.94161        -0.26397
N          -1.14677         0.41655        -0.64322
C          -2.02542         1.08490        -1.55802
H          -0.26606        -1.94780         1.47342
H           0.46185        -1.85469        -0.18476
H          -2.23700        -0.67453         0.75340
H          -1.85397        -1.56969        -0.79232
H           0.82935         0.84091        -1.13114
H           0.06484         2.01112         0.04388
H          -1.79657         0.75257        -2.59569
H          -3.08618         0.84228        -1.32134
H          -1.89373         2.18845        -1.49041
H           1.67270        -0.06819         0.98588
H           0.16723         0.43715         1.86088

