$RunGaus
%mem=8000Mb
%nproc=4
# b3lyp/6-31+g(d,p)

N-Me-spiro[piperidine-2,2'-adamantane]-b.hin

0  1
C          -2.66241        -0.88708        -0.82937
C          -2.59316         0.65142        -0.79731
C          -1.11517         1.12432        -0.86506
C          -0.27091         0.59418         0.34732
C          -0.36957        -0.96157         0.20508
C          -1.81695        -1.48597         0.30488
C           0.20362        -1.43565        -1.14749
C          -0.65345        -0.89791        -2.30530
C          -0.66675         0.63671        -2.26357
C          -2.10001        -1.39875        -2.16599
C          -0.93827         0.97694         1.70652
C          -0.67019         2.43526         2.10367
C           0.83527         2.71985         2.11566
C           1.60205         1.45435         1.71895
N           1.18811         0.91216         0.42463
Xx          1.47573         0.38847         0.36556
C           1.72171         1.78074        -0.61660
H          -3.72459        -1.22127        -0.72517
H          -3.13820         1.05639         0.08305
H          -3.17337         1.06224        -1.65748
H          -1.11866         2.23976        -0.84994
H           0.22799        -1.43637         1.02231
H          -2.27567        -1.26648         1.29516
H          -1.82321        -2.59952         0.23301
H           0.21882        -2.55084        -1.18401
H           1.26310        -1.11307        -1.27040
H          -0.23485        -1.24827        -3.28155
H          -1.35327         1.02718        -3.05177
H           0.31132         1.03820        -2.58995
H          -2.72379        -1.03059        -3.01485
H          -2.13245        -2.51329        -2.20762
H          -0.59566         0.30130         2.52439
H          -2.03827         0.83942         1.73158
H          -1.11448         2.64536         3.10663
H          -1.18127         3.11693         1.38311
H           1.15890         3.04172         3.13472
H           1.08333         3.56325         1.42874
H           1.50164         0.66698         2.50241
H           2.69979         1.65731         1.73441
H           2.73398         2.16901        -0.36109
H           1.93426         1.20005        -1.53789
H           1.07881         2.66680        -0.81531

