# opt b3lyp/6-31+g(d,p)

N-me-piperidine ch-eq-lp

0 1
 C                 -1.44489286   -0.98266071   -0.77200000
 C                 -1.44289286    0.55033929   -0.76000000
 C                 -0.70789286   -1.49666071    0.46900000
 C                 -0.00789286    1.08433929   -0.63500000
 C                  0.70010714   -0.88766071    0.54900000
 N                  0.66110714    0.56933929    0.55300000
 C                  2.00110714    1.12533929    0.67800000
 H                 -0.93389286   -1.35166071   -1.69300000
 H                 -2.49189286   -1.37066071   -0.79300000
 H                 -2.05089286    0.91733929    0.10100000
 H                 -1.91989286    0.94033929   -1.69100000
 H                 -0.64489286   -2.61166071    0.44200000
 H                 -1.28289286   -1.22066071    1.38500000
 H                 -0.04789286    2.19933929   -0.58900000
 H                  0.56910714    0.81033929   -1.55100000
 H                  1.31010714   -1.25366071   -0.31100000
 H                  1.19010714   -1.25166071    1.48400000
 H                  2.64610714    0.83933929   -0.18400000
 H                  1.95810714    2.23833929    0.73700000
 H                  2.48510714    0.77133929    1.61800000

 