%mem=2000MB
%nprocshared=4
%rwf=/pub/tmp/
%NoSave
# b3lyp/6-31+g(d,p)

tBu-CMe2Cl

0 1
 C              
 C                  1            B1
 C                  2            B2    1            A1
 C                  2            B3    1            A2    3            D1    0
 Cl                 2            B4    1            A3    4            D2    0
 H                  3            B5    2            A4    1            D3    0
 H                  3            B6    2            A5    1            D4    0
 H                  3            B7    2            A6    1            D5    0
 H                  4            B8    2            A7    1            D6    0
 H                  4            B9    2            A8    1            D7    0
 H                  4           B10    2            A9    1            D8    0
 C                  1           B11    2           A10    3            D9    0
 C                  1           B12   12           A11    2           D10    0
 C                  1           B13   12           A12   13           D11    0
 H                 12           B14    1           A13   14           D12    0
 H                 12           B15    1           A14   14           D13    0
 H                 12           B16    1           A15   14           D14    0
 H                 13           B17    1           A16   14           D15    0
 H                 13           B18    1           A17   14           D16    0
 H                 13           B19    1           A18   14           D17    0
 H                 14           B20    1           A19   12           D18    0
 H                 14           B21    1           A20   12           D19    0
 H                 14           B22    1           A21   12           D20    0

   B1             1.57147131
   B2             1.53124369
   B3             1.53124394
   B4             1.85028517
   B5             1.08292403
   B6             1.08073544
   B7             1.08438591
   B8             1.08292383
   B9             1.08438496
   B10            1.08073544
   B11            1.54039254
   B12            1.54436510
   B13            1.54039145
   B14            1.08557813
   B15            1.08245578
   B16            1.08408427
   B17            1.08530732
   B18            1.08397079
   B19            1.08397055
   B20            1.08557852
   B21            1.08408323
   B22            1.08245552
   A1           113.88434557
   A2           113.88429125
   A3           108.92500855
   A4           109.63085600
   A5           112.29449754
   A6           110.28999644
   A7           109.63075388
   A8           110.28994243
   A9           112.29449867
   A10          111.78256779
   A11          107.59618694
   A12          108.07276666
   A13          109.16947129
   A14          111.97173716
   A15          112.23373632
   A16          108.90634387
   A17          112.50857051
   A18          112.50875103
   A19          109.16934357
   A20          112.23380493
   A21          111.97163663
   D1           125.89301230
   D2           117.05360602
   D3          -177.34953073
   D4           -57.53934299
   D5            64.01778574
   D6           177.34735325
   D7           -64.02002444
   D8            57.53713408
   D9           177.70283623
   D10         -120.66165338
   D11         -115.91906770
   D12          -54.92507256
   D13           64.38387158
   D14         -173.51642541
   D15           58.11507595
   D16          176.73533853
   D17          -60.50547512
   D18           54.92122674
   D19          173.51262908
   D20          -64.38750689

