$RunGaus
%mem=16000Mb
%nproc=8
# mp2/cc-pVTZ

1_3_butadiene_t_single_point

0 1 
 c
 c   1 cc2     
 c    2 cc3         1 ccc3      
 c    3 cc4         2 ccc4          1 dih4   
 h    1 hc5         2 hcc5          3 dih5   
 h    1 hc6         2 hcc6          3 dih6   
 h    2 hc7         3 hcc7          4 dih7   
 h    3 hc8         2 hcc8          1 dih8   
 h    4 hc9         3 hcc9          2 dih9   
 h    4 hc10        3 hcc10         2 dih10  
 
cc2         1.343265
cc3         1.458404
ccc3        124.330
cc4         1.343265
ccc4        124.331
dih4        180.000
hc5         1.085154
hcc5        121.622
dih5        180.000
hc6         1.087504
hcc6        121.443
dih6          0.000
hc7         1.090267
hcc7        116.332
dih7          0.000
hc8         1.090263
hcc8        116.333
dih8          0.000
hc9         1.085154
hcc9        121.622
dih9        180.000
hc10        1.087505
hcc10       121.443
dih10         0.000
 
 
 
 

