$RunGaus
%mem=16000Mb
%nproc=8
# mp2/cc-pVTZ

1_3_butadiene_cis_single_point

0 1 
 c
 c   1 cc2     
 c    2 cc3         1 ccc3      
 c    3 cc4         2 ccc4          1 dih4   
 h    2 hc5         3 hcc5          4 dih5   
 h    3 hc6         2 hcc6          1 dih6   
 h    1 hc7         2 hcc7          3 dih7   
 h    1 hc8         2 hcc8          3 dih8   
 h    4 hc9         3 hcc9          2 dih9   
 h    4 hc10        3 hcc10         2 dih10  
 
cc2         1.342538
cc3         1.472445
ccc3        127.331
cc4         1.342534
ccc4        127.331
dih4         -0.011
hc5         1.089112
hcc5        114.876
dih5        179.990
hc6         1.089114
hcc6        114.876
dih6        179.991
hc7         1.086749
hcc7        122.538
dih7         -0.001
hc8         1.085322
hcc8        120.947
dih8       -180.000
hc9         1.086752
hcc9        122.537
dih9         -0.001
hc10        1.085322
hcc10       120.948
dih10      -179.999
 
 
 
 

