$RunGaus
%mem=16000Mb
%nproc=8
# mp2/cc-pVTZ

2_methylpropenal_t_single_point

0 1 
 c
 c   1 cc2     
 c    2 cc3         1 ccc3      
 c    2 cc4         3 ccc4          1 dih4   
 o    4 oc5         2 occ5          3 dih5   
 h    1 hc6         2 hcc6          4 dih6   
 h    1 hc7         2 hcc7          4 dih7   
 h    4 hc8         2 hcc8          1 dih8   
 h    3 hc9         2 hcc9          1 dih9   
 h    3 hc10        2 hcc10         1 dih10  
 h    3 hc11        2 hcc11         1 dih11  
 
cc2         1.344514
cc3         1.509513
ccc3        124.839
cc4         1.485378
ccc4        118.386
dih4        180.000
oc5         1.218533
occ5        124.698
dih5          0.000
hc6         1.086448
hcc6        122.267
dih6        180.000
hc7         1.087581
hcc7        120.962
dih7          0.000
hc8         1.110646
hcc8        114.807
dih8          0.000
hc9         1.092034
hcc9        110.103
dih9        180.000
hc10        1.094885
hcc10       111.027
dih10       -59.913
hc11        1.094885
hcc11       111.027
dih11        59.913
 
 
 
 

