$RunGaus
%mem=16000Mb
%nproc=8
# mp2/cc-pVTZ

2_methylpropenoic_acid_t_single_point

0 1 
 c
 c   1 cc2     
 c    2 cc3         1 ccc3      
 c    2 cc4         3 ccc4          1 dih4   
 o    4 oc5         2 occ5          3 dih5   
 o    4 oc6         2 occ6          1 dih6   
 h    1 hc7         2 hcc7          4 dih7   
 h    1 hc8         2 hcc8          4 dih8   
 h    3 hc9         2 hcc9          1 dih9   
 h    3 hc10        2 hcc10         1 dih10  
 h    3 hc11        2 hcc11         1 dih11  
 h    5 ho12        4 hoc12         2 dih12  
 
cc2         1.341585
cc3         1.506113
ccc3        124.127
cc4         1.491652
ccc4        115.159
dih4        179.996
oc5         1.359396
occ5        114.374
dih5        179.984
oc6         1.217526
occ6        123.951
dih6        179.987
hc7         1.086267
hcc7        120.779
dih7       -179.995
hc8         1.083861
hcc8        121.671
dih8          0.001
hc9         1.095021
hcc9        110.897
dih9        120.975
hc10        1.095021
hcc10       110.898
dih10      -120.973
hc11        1.092612
hcc11       110.674
dih11         0.001
ho12        0.971376
hoc12       106.454
dih12      -179.998
 
 
 
 

