$RunGaus
%mem=16000Mb
%nproc=8
# mp2/cc-pVTZ

2_methylpropenal_t1_single_point

0 1 
 c
 c   1 cc2     
 c    2 cc3         1 ccc3      
 c    2 cc4         3 ccc4          1 dih4   
 o    4 oc5         2 occ5          3 dih5   
 h    1 hc6         2 hcc6          4 dih6   
 h    1 hc7         2 hcc7          4 dih7   
 h    4 hc8         2 hcc8          1 dih8   
 h    3 hc9         2 hcc9          1 dih9   
 h    3 hc10        2 hcc10         1 dih10  
 h    3 hc11        2 hcc11         1 dih11  
 
cc2         1.344213
cc3         1.503182
ccc3        125.018
cc4         1.483899
ccc4        117.628
dih4       -179.992
oc5         1.218553
occ5        124.214
dih5         -0.085
hc6         1.086108
hcc6        122.152
dih6        179.984
hc7         1.087521
hcc7        121.028
dih7         -0.011
hc8         1.111130
hcc8        115.147
dih8          0.086
hc9         1.095251
hcc9        110.557
dih9       -121.257
hc10        1.092880
hcc10       111.315
dih10        -0.013
hc11        1.095251
hcc11       110.556
dih11       121.229
 
 
 
 

