$RunGaus
%mem=16000Mb
%nproc=8
# mp2/cc-pVTZ

2_methyl_1_3_butadiene_cis_single_point

0 1 
 c
 c   1 cc2     
 c    2 cc3         1 ccc3      
 c    2 cc4         3 ccc4          1 dih4   
 c    4 cc5         2 ccc5          3 dih5   
 h    1 hc6         2 hcc6          4 dih6   
 h    1 hc7         2 hcc7          4 dih7   
 h    4 hc8         2 hcc8          1 dih8   
 h    5 hc9         4 hcc9          2 dih9   
 h    5 hc10        4 hcc10         2 dih10  
 h    3 hc11        2 hcc11         1 dih11  
 h    3 hc12        2 hcc12         1 dih12  
 h    3 hc13        2 hcc13         1 dih13  
 
cc2         1.345028
cc3         1.522161
ccc3        120.257
cc4         1.481214
ccc4        116.401
dih4        179.998
cc5         1.342161
ccc5        127.925
dih5       -179.999
hc6         1.086349
hcc6        121.170
dih6        179.999
hc7         1.085442
hcc7        122.393
dih7         -0.001
hc8         1.089458
hcc8        114.775
dih8        179.999
hc9         1.085287
hcc9        120.694
dih9       -179.999
hc10        1.086471
hcc10       122.766
dih10         0.000
hc11        1.093664
hcc11       111.764
dih11       179.955
hc12        1.095349
hcc12       111.207
dih12       -59.882
hc13        1.095345
hcc13       111.207
dih13        59.792
 
 
 
 

