$RunGaus
%mem=16000Mb
%nproc=8
# mp2/cc-pVTZ

2_methyl_1_3_butadiene_t_single_point

0 1 
 c
 c   1 cc2     
 c    2 cc3         1 ccc3      
 c    2 cc4         3 ccc4          1 dih4   
 c    4 cc5         2 ccc5          3 dih5   
 h    1 hc6         2 hcc6          4 dih6   
 h    1 hc7         2 hcc7          4 dih7   
 h    4 hc8         2 hcc8          1 dih8   
 h    5 hc9         4 hcc9          2 dih9   
 h    5 hc10        4 hcc10         2 dih10  
 h    3 hc11        2 hcc11         1 dih11  
 h    3 hc12        2 hcc12         1 dih12  
 h    3 hc13        2 hcc13         1 dih13  
 
cc2         1.347126
cc3         1.510042
ccc3        121.587
cc4         1.469438
ccc4        118.743
dih4       -179.999
cc5         1.343089
ccc5        126.161
dih5         -0.001
hc6         1.085873
hcc6        121.737
dih6        179.999
hc7         1.086769
hcc7        121.391
dih7          0.001
hc8         1.089637
hcc8        115.254
dih8          0.001
hc9         1.085373
hcc9        120.971
dih9       -179.999
hc10        1.085937
hcc10       122.454
dih10         0.001
hc11        1.096637
hcc11       111.106
dih11       120.468
hc12        1.096635
hcc12       111.106
dih12      -120.469
hc13        1.092862
hcc13       111.093
dih13         0.000
 
 
 
 

