$RunGaus
%mem=16000Mb
%nproc=8
# mp2/cc-pVTZ

acrolein_cis_single_point

0 1 
 c
 c   1 cc2     
 c    2 cc3         1 ccc3      
 o    3 oc4         2 occ4          1 dih4   
 h    3 hc5         2 hcc5          1 dih5   
 h    2 hc6         3 hcc6          4 dih6   
 h    1 hc7         2 hcc7          3 dih7   
 h    1 hc8         2 hcc8          3 dih8   
 
cc2         1.340289
cc3         1.484846
ccc3        122.117
oc4         1.218774
occ4        124.651
dih4          0.102
hc5         1.109937
hcc5        115.312
dih5        179.909
hc6         1.088140
hcc6        116.550
dih6       -179.904
hc7         1.085504
hcc7        121.739
dih7        179.985
hc8         1.086579
hcc8        120.318
dih8         -0.006
 
 
 
 

