$RunGaus
%mem=16000Mb
%nproc=8
# mp2/cc-pVTZ

but_1_ene_3_one_cis_single_point

0 1 
 c
 c   1 cc2     
 c    2 cc3         1 ccc3      
 o    3 oc4         2 occ4          1 dih4   
 c    3 cc5         2 ccc5          1 dih5   
 h    1 hc6         2 hcc6          3 dih6   
 h    1 hc7         2 hcc7          3 dih7   
 h    2 hc8         3 hcc8          5 dih8   
 h    5 hc9         3 hcc9          2 dih9   
 h    5 hc10        3 hcc10         2 dih10  
 h    5 hc11        3 hcc11         2 dih11  
 
cc2         1.338341
cc3         1.497077
ccc3        121.905
oc4         1.223215
occ4        121.855
dih4          0.000
cc5         1.515446
ccc5        116.429
dih5        180.000
hc6         1.085591
hcc6        121.699
dih6        180.000
hc7         1.086616
hcc7        120.167
dih7          0.000
hc8         1.088440
hcc8        117.279
dih8          0.000
hc9         1.090589
hcc9        110.034
dih9        180.000
hc10        1.097103
hcc10       110.187
dih10       -58.825
hc11        1.097103
hcc11       110.187
dih11        58.825
 
 
 
 

