$RunGaus
%mem=16000Mb
%nproc=8
# mp2/cc-pVTZ

but_1_ene_3_one_t_single_point

0 1 
 c
 c   1 cc2     
 c    2 cc3         1 ccc3      
 o    3 oc4         2 occ4          1 dih4   
 c    3 cc5         2 ccc5          1 dih5   
 h    1 hc6         2 hcc6          3 dih6   
 h    1 hc7         2 hcc7          3 dih7   
 h    2 hc8         3 hcc8          5 dih8   
 h    5 hc9         3 hcc9          2 dih9   
 h    5 hc10        3 hcc10         2 dih10  
 h    5 hc11        3 hcc11         2 dih11  
 
cc2         1.339643
cc3         1.489649
ccc3        125.309
oc4         1.224868
occ4        119.229
dih4       -179.958
cc5         1.518146
ccc5        119.719
dih5         -0.061
hc6         1.086007
hcc6        121.202
dih6       -179.990
hc7         1.086293
hcc7        122.363
dih7          0.009
hc8         1.087614
hcc8        113.747
dih8        179.944
hc9         1.090641
hcc9        108.841
dih9       -179.934
hc10        1.095740
hcc10       110.881
dih10       -59.594
hc11        1.095731
hcc11       110.872
dih11        59.732
 
 
 
 

