$RunGaus
%mem=16000Mb
%nproc=8
# mp2/cc-pVTZ

propenoic_acid_t_single_point

0 1 
 c
 c   1 cc2     
 c    2 cc3         1 ccc3      
 o    3 oc4         2 occ4          1 dih4   
 o    3 oc5         2 occ5          1 dih5   
 h    1 hc6         2 hcc6          3 dih6   
 h    1 hc7         2 hcc7          3 dih7   
 h    4 ho8         3 hoc8          2 dih8   
 h    2 hc9         3 hcc9          5 dih9   
 
cc2         1.337661
cc3         1.480104
ccc3        124.345
oc4         1.359131
occ4        113.972
dih4          0.000
oc5         1.216884
occ5        123.877
dih5        180.000
hc6         1.085725
hcc6        120.886
dih6        180.000
hc7         1.085114
hcc7        121.514
dih7          0.000
ho8         0.971508
hoc8        106.706
dih8        180.000
hc9         1.085346
hcc9        113.624
dih9          0.000
 
 
 
 

