$RunGaus
%mem=16000Mb
%nproc=8
# mp2/cc-pVTZ

propenoic_acid_cis_single_point

0 1 
 c
 c   1 cc2     
 c    2 cc3         1 ccc3      
 o    3 oc4         2 occ4          1 dih4   
 o    3 oc5         2 occ5          1 dih5   
 h    1 hc6         2 hcc6          3 dih6   
 h    1 hc7         2 hcc7          3 dih7   
 h    4 ho8         3 hoc8          2 dih8   
 h    2 hc9         3 hcc9          5 dih9   
 
cc2         1.336792
cc3         1.483394
ccc3        120.906
oc4         1.359264
occ4        111.345
dih4        179.990
oc5         1.215838
occ5        126.265
dih5          0.010
hc6         1.085140
hcc6        121.331
dih6        179.993
hc7         1.086161
hcc7        120.549
dih7          0.005
ho8         0.972130
hoc8        107.033
dih8       -179.990
hc9         1.085475
hcc9        116.783
dih9       -179.990
 
 
 
 

