# opt uff

1,2-difluoroethane-a

0 1
 C                 -0.00597059   -0.76952941   -0.00417647
 C                  0.00602941    0.76947059    0.00482353
 F                  1.30502941   -1.24552941   -0.00717647
 F                 -1.30497059    1.24547059    0.00682353
 H                 -0.53997059   -1.15352941    0.89482353
 H                 -0.53997059   -1.14252941   -0.90917647
 H                  0.53902941    1.14347059    0.90882353
 H                  0.54002941    1.15347059   -0.89517647

 1 2 1.0 3 1.0 5 1.0 6 1.0
 2 4 1.0 7 1.0 8 1.0
 3
 4
 5
 6
 7
 8

