# opt uff

adrenaline-B

1 1
 C                 -0.94534343   -1.96755556   -0.90189899
 C                 -1.02534343   -1.13555556    0.38610101
 H                 -2.06234343   -0.74055556    0.51410101
 O                 -0.77134343   -1.96455556    1.50110101
 C                 -0.04034343    0.01544444    0.35710101
 N                 -2.04634343   -2.98855556   -0.81089899
 H                 -1.11534343   -1.32055556   -1.79389899
 H                  0.03865657   -2.48255556   -0.99489899
 C                  1.33665657   -0.21455556    0.40410101
 C                  2.23265657    0.85344444    0.37310101
 C                  1.79065657    2.17744444    0.29310101
 C                  0.40965657    2.42444444    0.24210101
 C                 -0.47534343    1.34144444    0.27410101
 O                 -0.06134343    3.70144444    0.16110101
 O                  2.67465657    3.21344444    0.26310101
 H                  0.70365657    4.24944444    0.12510101
 H                  3.52265657    2.82344444    0.14510101
 H                 -0.78034343   -1.41755556    2.26810101
 H                 -1.92234343   -3.56555556    0.05110101
 H                 -2.96434343   -2.50755556   -0.68389899
 C                 -2.10534343   -3.88455556   -2.01589899
 H                  1.72565657   -1.24455556    0.46610101
 H                  3.31565657    0.64844444    0.41210101
 H                 -1.55634343    1.55344444    0.22910101
 H                 -1.15034343   -4.44655556   -2.12289899
 H                 -2.29634343   -3.28255556   -2.93289899
 H                 -2.93734343   -4.60955556   -1.87989899

 1 2 1.0 6 1.0 7 1.0 8 1.0
 2 3 1.0 4 1.0 5 1.0
 3
 4 18 1.0
 5 9 1.5 13 1.5
 6 19 1.0 20 1.0 21 1.0
 7
 8
 9 10 1.5 22 1.0
 10 11 1.5 23 1.0
 11 12 1.5 15 1.0
 12 13 1.5 14 1.0
 13 24 1.0
 14 16 1.0
 15 17 1.0
 16
 17
 18
 19
 20
 21 25 1.0 26 1.0 27 1.0
 22
 23
 24
 25
 26
 27

