# opt uff

dopamine-A,C

1 1
 C                  2.16431325    2.18379518    0.30738554
 C                  2.08831325    0.99279518   -0.65461446
 H                  2.05931325    1.36479518   -1.70661446
 C                  0.86431325    0.14379518   -0.40161446
 N                  2.27131325    1.61679518    1.68938554
 H                  3.06531325    2.80779518    0.10838554
 H                  1.25531325    2.82579518    0.24738554
 C                  0.95131325   -1.06620482    0.29138554
 C                 -0.19268675   -1.83120482    0.51438554
 C                 -1.45068675   -1.42220482    0.05838554
 C                 -1.55068675   -0.20920482   -0.64061446
 C                 -0.39368675    0.54779518   -0.85661446
 O                 -2.76168675    0.21579518   -1.09761446
 O                 -2.55568675   -2.18620482    0.28738554
 H                 -2.60368675    1.04679518   -1.50961446
 H                 -3.27068675   -1.71520482   -0.10261446
 H                  2.34931325    2.36379518    2.41238554
 H                  1.44131325    1.03779518    1.94038554
 H                  3.10831325    1.00479518    1.79538554
 H                  3.01531325    0.37679518   -0.57061446
 H                  1.92431325   -1.42020482    0.67138554
 H                 -0.10568675   -2.78320482    1.06638554
 H                 -0.48168675    1.49979518   -1.40461446

 1 2 1.0 5 1.0 6 1.0 7 1.0
 2 3 1.0 4 1.0 20 1.0
 3
 4 8 1.5 12 1.5
 5 17 1.0 18 1.0 19 1.0
 6
 7
 8 9 1.5 21 1.0
 9 10 1.5 22 1.0
 10 11 1.5 14 1.0
 11 12 1.5 13 1.0
 12 23 1.0
 13 15 1.0
 14 16 1.0
 15
 16
 17
 18
 19
 20
 21
 22
 23

