# opt uff

ephedrine-B

1 1
 C                 -1.17965934   -1.07215385    0.30984615
 C                 -0.79765934    0.29084615   -0.28915385
 C                  0.64834066    0.63684615    0.00784615
 N                 -2.65065934   -1.32815385    0.08684615
 C                  1.05034066    0.99584615    1.29984615
 C                  2.38234066    1.30584615    1.57984615
 C                  3.33934066    1.25684615    0.56584615
 C                  2.95534066    0.89384615   -0.72615385
 C                  1.62134066    0.58584615   -0.99815385
 H                 -2.91565934   -2.20215385    0.59684615
 H                 -3.19865934   -0.57615385    0.56284615
 C                 -3.12265934   -1.44215385   -1.33615385
 H                  0.31034066    1.03384615    2.11684615
 H                  1.34034066    0.29184615   -2.02315385
 H                 -4.21565934   -1.64915385   -1.31915385
 H                 -2.96565934   -0.49115385   -1.89115385
 H                 -2.62265934   -2.28715385   -1.85915385
 H                  2.68034066    1.58684615    2.60384615
 H                  3.70834066    0.84684615   -1.53115385
 H                  4.39234066    1.49884615    0.78384615
 O                 -1.65265934    1.29084615    0.22584615
 H                 -0.94065934    0.29184615   -1.39515385
 H                 -1.32665934    2.12384615   -0.06815385
 C                 -0.38665934   -2.24815385   -0.27215385
 H                 -1.03565934   -1.04815385    1.41584615
 H                  0.67634066   -2.20715385    0.06084615
 H                 -0.37365934   -2.23815385   -1.38515385
 H                 -0.79965934   -3.22515385    0.06784615

 1 2 1.0 4 1.0 24 1.0 25 1.0
 2 3 1.0 21 1.0 22 1.0
 3 5 1.5 9 1.5
 4 10 1.0 11 1.0 12 1.0
 5 6 1.5 13 1.0
 6 7 1.5 18 1.0
 7 8 1.5 20 1.0
 8 9 1.5 19 1.0
 9 14 1.0
 10
 11
 12 15 1.0 16 1.0 17 1.0
 13
 14
 15
 16
 17
 18
 19
 20
 21 23 1.0
 22
 23
 24 26 1.0 27 1.0 28 1.0
 25
 26
 27
 28

