$RunGaus
%mem=8000Mb
%nproc=8
%RWF=/media/S_/Gaussian_scratch/,130GB,/media/TOSHIBA\ EXT/,120GB,/home/scratch/stylianakis/,50GB,
%NoSave
# opt b3lyp/6-31+g(d,p)

Ph3SiO-cycl-eq_single_point

0 1 
 c
 c   1 cc2     
 c    2 cc3         1 ccc3      
 c    3 cc4         2 ccc4          1 dih4   
 c    4 cc5         3 ccc5          2 dih5   
 c    5 cc6         4 ccc6          3 dih6   
si    4 sic7        5 sicc7         6 dih7   
 c    7 csi8        4 csic8         5 dih8   
 c    8 cc9         7 ccsi9         4 dih9   
 c    9 cc10        8 ccc10         7 dih10  
 c   10 cc11        9 ccc11         8 dih11  
 c   11 cc12       10 ccc12         9 dih12  
 c   12 cc13       11 ccc13        10 dih13  
 o    7 osi14       8 osic14        9 dih14  
 c   14 co15        7 cosi15        8 dih15  
 c   15 cc16       14 cco16         7 dih16  
 c   16 cc17       15 ccc17        14 dih17  
 c   17 cc18       16 ccc18        15 dih18  
 c   18 cc19       17 ccc19        16 dih19  
 c   19 cc20       18 ccc20        17 dih20  
 c    7 csi21      14 csio21       15 dih21  
 c   21 cc22        7 ccsi22       14 dih22  
 c   22 cc23       21 ccc23         7 dih23  
 c   23 cc24       22 ccc24        21 dih24  
 c   24 cc25       23 ccc25        22 dih25  
 c   25 cc26       24 ccc26        23 dih26  
 h   17 hc27       18 hcc27        19 dih27  
 h   17 hc28       18 hcc28        19 dih28  
 h   18 hc29       17 hcc29        16 dih29  
 h   18 hc30       17 hcc30        16 dih30  
 h   19 hc31       18 hcc31        17 dih31  
 h   19 hc32       18 hcc32        17 dih32  
 h   16 hc33       17 hcc33        18 dih33  
 h   16 hc34       17 hcc34        18 dih34  
 h   20 hc35       19 hcc35        18 dih35  
 h   20 hc36       19 hcc36        18 dih36  
 h   15 hc37       16 hcc37        17 dih37  
 h   22 hc38       21 hcc38         7 dih38  
 h   23 hc39       22 hcc39        21 dih39  
 h   24 hc40       23 hcc40        22 dih40  
 h   25 hc41       24 hcc41        23 dih41  
 h   26 hc42       21 hcc42         7 dih42  
 h    9 hc43        8 hcc43         7 dih43  
 h   13 hc44        8 hcc44         7 dih44  
 h   12 hc45       13 hcc45         8 dih45  
 h   10 hc46        9 hcc46         8 dih46  
 h   11 hc47       12 hcc47        13 dih47  
 h    5 hc48        4 hcc48         7 dih48  
 h    3 hc49        4 hcc49         7 dih49  
 h    2 hc50        3 hcc50         4 dih50  
 h    6 hc51        5 hcc51         4 dih51  
 h    1 hc52        2 hcc52         3 dih52  
 
cc2         1.397858
cc3         1.397094
ccc3        120.023
cc4         1.408707
ccc4        121.368
dih4         -0.260
cc5         1.408103
ccc5        117.581
dih5          0.223
cc6         1.398181
ccc6        121.349
dih6          0.021
sic7        1.889723
sicc7       122.462
dih7       -176.626
csi8        1.892968
csic8       109.500
dih8        -31.923
cc9         1.409347
ccsi9       121.685
dih9        -39.720
cc10        1.397502
ccc10       121.418
dih10      -176.929
cc11        1.397740
ccc11       119.984
dih11        -0.273
cc12        1.397388
ccc12       119.667
dih12         0.014
cc13        1.397717
ccc13       120.048
dih13         0.148
osi14       1.671333
osic14      111.630
dih14        82.182
co15        1.436004
cosi15      127.582
dih15       -44.737
cc16        1.531846
cco16       108.849
dih16      -135.497
cc17        1.538208
ccc17       111.601
dih17      -176.195
cc18        1.536700
ccc18       111.616
dih18        54.845
cc19        1.536779
ccc19       111.204
dih19       -54.369
cc20        1.538247
ccc20       111.531
dih20        54.437
csi21       1.882794
csio21      103.892
dih21      -164.071
cc22        1.407723
ccsi22      121.107
dih22      -164.085
cc23        1.396940
ccc23       121.260
dih23      -178.907
cc24        1.398206
ccc24       119.965
dih24        -0.239
cc25        1.397247
ccc25       119.702
dih25        -0.045
cc26        1.398200
ccc26       120.082
dih26         0.164
hc27        1.096670
hcc27       110.467
dih27      -176.771
hc28        1.099945
hcc28       109.178
dih28        66.641
hc29        1.097007
hcc29       110.249
dih29      -177.038
hc30        1.099702
hcc30       109.174
dih30        66.161
hc31        1.099872
hcc31       109.243
dih31       -66.596
hc32        1.096660
hcc32       110.461
dih32       176.805
hc33        1.098676
hcc33       110.043
dih33       -65.024
hc34        1.095886
hcc34       110.620
dih34       177.011
hc35        1.095505
hcc35       110.741
dih35      -177.299
hc36        1.098787
hcc36       109.884
dih36        64.632
hc37        1.101804
hcc37       108.471
dih37        64.434
hc38        1.087803
hcc38       119.969
dih38         1.534
hc39        1.086631
hcc39       119.930
dih39      -179.921
hc40        1.086611
hcc40       120.115
dih40      -179.812
hc41        1.086785
hcc41       120.067
dih41      -179.679
hc42        1.086044
hcc42       119.220
dih42        -1.569
hc43        1.087488
hcc43       119.866
dih43         3.496
hc44        1.086938
hcc44       119.627
dih44        -3.146
hc45        1.086661
hcc45       119.868
dih45       179.810
hc46        1.086701
hcc46       119.905
dih46       179.991
hc47        1.086551
hcc47       120.182
dih47       179.934
hc48        1.087247
hcc48       119.869
dih48         3.711
hc49        1.086882
hcc49       119.462
dih49        -2.850
hc50        1.086721
hcc50       119.913
dih50       179.876
hc51        1.086704
hcc51       119.874
dih51       179.991
hc52        1.086542
hcc52       120.181
dih52      -179.935
 
 
 

