# opt dreiding

1,2-diSO2Me-Et-C1

0 1
 C                  0.00714286   -0.83902041   -0.06733673
 C                 -0.07285714    0.69597959   -0.15233673
 S                 -1.78385714    1.19197959    0.05666327
 C                 -1.73985714    2.96297959   -0.13033673
 O                 -2.56985714    0.61597959   -1.01533673
 O                 -2.18085714    0.86497959    1.41166327
 S                  1.71614286   -1.37302041   -0.16533673
 H                 -0.41885714   -1.23802041    0.88266327
 H                 -0.53185714   -1.30502041   -0.92533673
 H                  0.51614286    1.19497959    0.65266327
 H                  0.27414286    1.07097959   -1.14333673
 H                 -2.76785714    3.37397959   -0.01033673
 H                 -1.07385714    3.40597959    0.64466327
 H                 -1.35485714    3.22497959   -1.14133673
 O                  1.74414286   -2.81702041   -0.30033673
 O                  2.38214286   -0.60802041   -1.20133673
 C                  2.42314286   -0.94002041    1.41366327
 H                  3.48114286   -1.28402041    1.44866327
 H                  2.39914286    0.16197959    1.56166327
 H                  1.85014286   -1.43602041    2.22966327

 1 2 1.0 7 1.0 8 1.0 9 1.0
 2 3 1.0 10 1.0 11 1.0
 3 4 1.0 5 2.0 6 2.0
 4 12 1.0 13 1.0 14 1.0
 5
 6
 7 15 2.0 16 2.0 17 1.0
 8
 9
 10
 11
 12
 13
 14
 15
 16
 17 18 1.0 19 1.0 20 1.0
 18
 19
 20

