# opt dreiding

2-methyl-1,3-butadiene-t

0 1
 C                  0.16365789   -1.77523684   -0.12615789
 C                  0.17665789   -0.43323684   -0.02915789
 C                 -0.99334211    0.23576316    0.00484211
 C                 -1.11934211    1.56876316    0.09884211
 H                  1.09865789   -2.35723684   -0.15615789
 H                 -0.77034211   -2.36023684   -0.18015789
 C                  1.50565789    0.28976316    0.03984211
 H                 -1.93834211   -0.33423684   -0.04915789
 H                 -2.11834211    2.03576316    0.11984211
 H                 -0.26034211    2.25476316    0.15984211
 H                  1.61865789    0.99076316   -0.81815789
 H                  1.59465789    0.85976316    0.99284211
 H                  2.37565789   -0.40423684    0.00184211

 1 2 2.0 5 1.0 6 1.0
 2 3 2.0 7 1.0
 3 4 2.0 8 1.0
 4 9 1.0 10 1.0
 5
 6
 7 11 1.0 12 1.0 13 1.0
 8
 9
 10
 11
 12
 13

