# opt dreiding

acrolein-t

0 1
 O                 -0.64260000   -1.62753333    0.03806667
 C                 -0.57360000   -0.42053333    0.01406667
 C                  0.59340000    0.26946667   -0.01193333
 C                  0.61840000    1.61046667   -0.03693333
 H                 -1.51560000    0.17546667    0.01306667
 H                  1.54740000   -0.28653333   -0.01193333
 H                  1.57840000    2.15146667   -0.05793333
 H                 -0.29860000    2.22346667   -0.03893333

 1 2 2.0
 2 3 2.0 5 1.0
 3 4 2.0 6 1.0
 4 7 1.0 8 1.0
 5
 6
 7
 8

