# opt dreiding

acrolein-cis

0 1
 O                 -1.43963333   -0.34606667    0.02266667
 C                 -0.32463333   -0.81506667    0.01866667
 C                  0.83736667   -0.11706667   -0.00733333
 C                  0.85136667    1.22393333   -0.03233333
 H                 -0.20463333   -1.92306667    0.03866667
 H                  1.79836667   -0.66206667   -0.00733333
 H                  1.80736667    1.77193333   -0.05333333
 H                 -0.06863333    1.83093333   -0.03333333

 1 2 2.0
 2 3 2.0 5 1.0
 3 4 2.0 6 1.0
 4 7 1.0 8 1.0
 5
 6
 7
 8

