# opt dreiding

DCE-a

0 1
 C                 -0.74600000    1.74019048   -0.00004762
 N                 -0.74400000    2.89919048   -0.00004762
 C                 -0.72100000    0.26519048   -0.00004762
 C                  0.74600000   -1.74080952   -0.00004762
 N                  0.74400000   -2.89880952   -0.00004762
 C                  0.72100000   -0.26480952   -0.00004762
 H                 -1.26800000   -0.09180952    0.90395238
 H                 -1.26800000   -0.09180952   -0.90304762
 H                  1.26800000    0.09119048    0.90395238
 H                  1.26800000    0.09119048   -0.90304762

 1 2 3.0 3 1.0
 2
 3 6 1.0 7 1.0 8 1.0
 4 5 3.0 6 1.0
 5
 6 9 1.0 10 1.0
 7
 8
 9
 10

