# opt dreiding

propenoic acid-cis

0 1
 C                 -1.92931579   -0.12831579   -0.00855263
 C                 -0.70731579   -0.68331579    0.00244737
 C                  0.43268421    0.05668421    0.00144737
 O                  0.40268421    1.26768421   -0.00855263
 O                  1.65368421   -0.52631579    0.01244737
 H                 -2.82931579   -0.76431579   -0.00755263
 H                 -2.09531579    0.96168421   -0.01755263
 H                  2.31568421    0.18468421    0.01044737
 H                 -0.61831579   -1.78331579    0.01144737

 1 2 2.0 6 1.0 7 1.0
 2 3 2.0 9 1.0
 3 4 2.0 5 1.0
 4
 5 8 1.0
 6
 7
 8
 9

