RunGaus
%mem=8000Mb
%nproc=4
# mp2/cc-pVTZ

1-4-diF-cyclohexane-diax_single_point

0 1 
 c
 c   1 cc2     
 c    2 cc3         1 ccc3      
 c    3 cc4         2 ccc4          1 dih4   
 c    4 cc5         3 ccc5          2 dih5   
 c    5 cc6         4 ccc6          3 dih6   
 f    3 fc7         4 fcc7          5 dih7   
 f    6 fc8         5 fcc8          4 dih8   
 h    4 hc9         3 hcc9          2 dih9   
 h    4 hc10        3 hcc10         2 dih10  
 h    3 hc11        4 hcc11         5 dih11  
 h    2 hc12        3 hcc12         4 dih12  
 h    2 hc13        3 hcc13         4 dih13  
 h    5 hc14        4 hcc14         3 dih14  
 h    5 hc15        4 hcc15         3 dih15  
 h    6 hc16        5 hcc16         4 dih16  
 h    1 hc17        2 hcc17         3 dih17  
 h    1 hc18        2 hcc18         3 dih18  
 
cc2         1.537929
cc3         1.524740
ccc3        112.170
cc4         1.524717
ccc4        112.909
dih4        -52.079
cc5         1.537929
ccc5        112.171
dih5         52.079
cc6         1.524734
ccc6        112.171
dih6        -51.687
fc7         1.426143
fcc7        108.180
dih7        -67.609
fc8         1.426141
fcc8        108.180
dih8        -67.612
hc9         1.095087
hcc9        109.291
dih9        174.907
hc10        1.096770
hcc10       107.852
dih10       -68.911
hc11        1.095464
hcc11       110.930
dih11       177.306
hc12        1.096768
hcc12       107.851
dih12        68.912
hc13        1.095085
hcc13       109.290
dih13      -174.905
hc14        1.096767
hcc14       109.767
dih14        68.193
hc15        1.095087
hcc15       110.437
dih15      -173.864
hc16        1.095463
hcc16       110.929
dih16       177.305
hc17        1.096768
hcc17       109.766
dih17       -68.193
hc18        1.095085
hcc18       110.437
dih18       173.864
 
 
 

