$RunGaus
%mem=8000Mb
%nproc=4
# mp2/cc-pVTZ

1-4-diCl-cyclohexane-diax_single_point

0 1 
 c
 c   1 cc2     
 c    2 cc3         1 ccc3      
 c    3 cc4         2 ccc4          1 dih4   
 c    4 cc5         3 ccc5          2 dih5   
 c    5 cc6         4 ccc6          3 dih6   
cl    3 clc7        4 clcc7         5 dih7   
cl    6 clc8        5 clcc8         4 dih8   
 h    4 hc9         3 hcc9          2 dih9   
 h    4 hc10        3 hcc10         2 dih10  
 h    3 hc11        4 hcc11         5 dih11  
 h    2 hc12        3 hcc12         4 dih12  
 h    2 hc13        3 hcc13         4 dih13  
 h    5 hc14        4 hcc14         3 dih14  
 h    5 hc15        4 hcc15         3 dih15  
 h    6 hc16        5 hcc16         4 dih16  
 h    1 hc17        2 hcc17         3 dih17  
 h    1 hc18        2 hcc18         3 dih18  
 
cc2         1.534882
cc3         1.530269
ccc3        112.893
cc4         1.530257
ccc4        112.141
dih4        -51.119
cc5         1.534874
ccc5        112.893
dih5         51.120
cc6         1.530264
ccc6        112.894
dih6        -51.507
clc7        1.851591
clcc7       109.953
dih7        -71.541
clc8        1.851588
clcc8       109.954
dih8        -71.547
hc9         1.097986
hcc9        106.814
dih9        -69.112
hc10        1.094010
hcc10       110.176
dih10       174.897
hc11        1.091244
hcc11       110.595
dih11       175.079
hc12        1.094007
hcc12       110.176
dih12      -174.896
hc13        1.097986
hcc13       106.814
dih13        69.111
hc14        1.094010
hcc14       110.278
dih14      -175.229
hc15        1.097987
hcc15       109.357
dih15        67.254
hc16        1.091243
hcc16       110.595
dih16       175.074
hc17        1.094011
hcc17       110.278
dih17       175.227
hc18        1.097987
hcc18       109.357
dih18       -67.257
 
 
 

