$RunGaus
%mem=8000Mb
%nproc=8
%RWF=/media/S/Gaussian_scratch/,140GB,/media/TOSHIBA\ EXT/,200GB,/home/scratch/stylianakis/,60GB,
%NoSave
# mp2/cc-pVTZ

BisSiMe3_cycl_dieq_sp_single_point

0 1 
 c
 c   1 cc2     
 c    2 cc3         1 ccc3      
 c    3 cc4         2 ccc4          1 dih4   
 c    4 cc5         3 ccc5          2 dih5   
 c    5 cc6         4 ccc6          3 dih6   
si    4 sic7        3 sicc7         2 dih7   
 c    7 csi8        4 csic8         3 dih8   
si    5 sic9        4 sicc9         3 dih9   
 c    9 csi10       5 csic10        4 dih10  
 c    7 csi11       4 csic11        3 dih11  
 c    7 csi12       4 csic12        3 dih12  
 c    9 csi13       5 csic13        4 dih13  
 c    9 csi14       5 csic14        4 dih14  
 h    3 hc15        4 hcc15         5 dih15  
 h    3 hc16        4 hcc16         5 dih16  
 h    4 hc17        3 hcc17         2 dih17  
 h    5 hc18        4 hcc18         3 dih18  
 h    2 hc19        3 hcc19         4 dih19  
 h    2 hc20        3 hcc20         4 dih20  
 h    6 hc21        5 hcc21         4 dih21  
 h    6 hc22        5 hcc22         4 dih22  
 h    1 hc23        2 hcc23         3 dih23  
 h    1 hc24        2 hcc24         3 dih24  
 h   11 hc25        7 hcsi25        4 dih25  
 h   11 hc26        7 hcsi26        4 dih26  
 h   11 hc27        7 hcsi27        4 dih27  
 h   12 hc28        7 hcsi28        4 dih28  
 h   12 hc29        7 hcsi29        4 dih29  
 h   12 hc30        7 hcsi30        4 dih30  
 h    8 hc31        7 hcsi31        4 dih31  
 h    8 hc32        7 hcsi32        4 dih32  
 h    8 hc33        7 hcsi33        4 dih33  
 h   13 hc34        9 hcsi34        5 dih34  
 h   13 hc35        9 hcsi35        5 dih35  
 h   13 hc36        9 hcsi36        5 dih36  
 h   14 hc37        9 hcsi37        5 dih37  
 h   14 hc38        9 hcsi38        5 dih38  
 h   14 hc39        9 hcsi39        5 dih39  
 h   10 hc40        9 hcsi40        5 dih40  
 h   10 hc41        9 hcsi41        5 dih41  
 h   10 hc42        9 hcsi42        5 dih42  
 
cc2         1.527849
cc3         1.533293
ccc3        110.668
cc4         1.557484
ccc4        114.106
dih4         55.936
cc5         1.571085
ccc5        110.749
dih5        -52.528
cc6         1.557491
ccc6        110.752
dih6         49.008
sic7        1.932076
sicc7       107.310
dih7        176.973
csi8        1.901852
csic8       109.484
dih8        -34.870
sic9        1.932079
sicc9       118.321
dih9        173.460
csi10       1.901854
csic10      109.486
dih10      -161.010
csi11       1.897720
csic11      110.966
dih11        83.182
csi12       1.900546
csic12      113.508
dih12      -150.778
csi13       1.897727
csic13      110.968
dih13       -42.959
csi14       1.900549
csic14      113.504
dih14        83.084
hc15        1.094827
hcc15       109.776
dih15      -175.110
hc16        1.101244
hcc16       109.211
dih16        68.805
hc17        1.103469
hcc17       106.644
dih17        64.119
hc18        1.103469
hcc18       107.475
dih18       -67.119
hc19        1.100246
hcc19       109.342
dih19       -64.622
hc20        1.097783
hcc20       109.869
dih20       178.710
hc21        1.094820
hcc21       109.777
dih21      -175.105
hc22        1.101249
hcc22       109.211
dih22        68.809
hc23        1.100245
hcc23       109.387
dih23        64.769
hc24        1.097787
hcc24       110.878
dih24      -177.948
hc25        1.096597
hcsi25      110.331
dih25      -177.309
hc26        1.096502
hcsi26      110.563
dih26       -58.747
hc27        1.093856
hcsi27      113.093
dih27        62.018
hc28        1.097060
hcsi28      109.123
dih28       177.142
hc29        1.091551
hcsi29      115.077
dih29       -61.965
hc30        1.096900
hcsi30      110.074
dih30        59.856
hc31        1.096824
hcsi31      109.232
dih31      -173.447
hc32        1.096580
hcsi32      111.930
dih32       -54.788
hc33        1.094803
hcsi33      112.822
dih33        67.025
hc34        1.096598
hcsi34      110.330
dih34      -177.312
hc35        1.096503
hcsi35      110.564
dih35       -58.750
hc36        1.093844
hcsi36      113.093
dih36        62.015
hc37        1.097058
hcsi37      109.124
dih37       177.151
hc38        1.091559
hcsi38      115.078
dih38       -61.955
hc39        1.096900
hcsi39      110.073
dih39        59.864
hc40        1.096826
hcsi40      109.232
dih40      -173.446
hc41        1.096580
hcsi41      111.930
dih41       -54.788
hc42        1.094802
hcsi42      112.823
dih42        67.025
 
 
 
 

