$RunGaus
%mem=8000Mb
%nproc=8
%RWF=/media/S/Gaussian_scratch/,140GB,/media/TOSHIBA\ EXT/,200GB,/home/scratch/stylianakis/,60GB,
%NoSave
# mp2/cc-pVTZ

BisSiMe3_cycl_diaxial_sp_single_point

0 1 
 c
 c   1 cc2     
 c    2 cc3         1 ccc3      
 c    3 cc4         2 ccc4          1 dih4   
 c    4 cc5         3 ccc5          2 dih5   
 c    5 cc6         4 ccc6          3 dih6   
si    4 sic7        3 sicc7         2 dih7   
 c    7 csi8        4 csic8         3 dih8   
si    5 sic9        4 sicc9         3 dih9   
 c    9 csi10       5 csic10        4 dih10  
 c    7 csi11       4 csic11        3 dih11  
 c    7 csi12       4 csic12        3 dih12  
 c    9 csi13       5 csic13        4 dih13  
 c    9 csi14       5 csic14        4 dih14  
 h    3 hc15        4 hcc15         5 dih15  
 h    3 hc16        4 hcc16         5 dih16  
 h    4 hc17        3 hcc17         2 dih17  
 h    5 hc18        4 hcc18         3 dih18  
 h    2 hc19        3 hcc19         4 dih19  
 h    2 hc20        3 hcc20         4 dih20  
 h    6 hc21        5 hcc21         4 dih21  
 h    6 hc22        5 hcc22         4 dih22  
 h    1 hc23        2 hcc23         3 dih23  
 h    1 hc24        2 hcc24         3 dih24  
 h   11 hc25        7 hcsi25        4 dih25  
 h   11 hc26        7 hcsi26        4 dih26  
 h   11 hc27        7 hcsi27        4 dih27  
 h   12 hc28        7 hcsi28        4 dih28  
 h   12 hc29        7 hcsi29        4 dih29  
 h   12 hc30        7 hcsi30        4 dih30  
 h    8 hc31        7 hcsi31        4 dih31  
 h    8 hc32        7 hcsi32        4 dih32  
 h    8 hc33        7 hcsi33        4 dih33  
 h   13 hc34        9 hcsi34        5 dih34  
 h   13 hc35        9 hcsi35        5 dih35  
 h   13 hc36        9 hcsi36        5 dih36  
 h   14 hc37        9 hcsi37        5 dih37  
 h   14 hc38        9 hcsi38        5 dih38  
 h   14 hc39        9 hcsi39        5 dih39  
 h   10 hc40        9 hcsi40        5 dih40  
 h   10 hc41        9 hcsi41        5 dih41  
 h   10 hc42        9 hcsi42        5 dih42  
 
cc2         1.535069
cc3         1.535977
ccc3        110.944
cc4         1.551043
ccc4        113.685
dih4         55.174
cc5         1.567100
ccc5        111.777
dih5        -50.993
cc6         1.551033
ccc6        111.775
dih6         47.750
sic7        1.924692
sicc7       115.260
dih7         81.819
csi8        1.899055
csic8       107.517
dih8        162.291
sic9        1.924696
sicc9       114.357
dih9        -85.505
csi10       1.899055
csic10      107.517
dih10       -66.108
csi11       1.899245
csic11      115.801
dih11       -77.469
csi12       1.898760
csic12      109.202
dih12        45.040
csi13       1.899245
csic13      115.802
dih13        54.131
csi14       1.898760
csic14      109.202
dih14       176.640
hc15        1.096727
hcc15       110.099
dih15      -174.994
hc16        1.098540
hcc16       109.196
dih16        69.332
hc17        1.103566
hcc17       106.118
dih17      -168.420
hc18        1.103568
hcc18       107.937
dih18       164.082
hc19        1.098890
hcc19       110.137
dih19       -65.782
hc20        1.097374
hcc20       109.712
dih20       177.407
hc21        1.096729
hcc21       110.101
dih21      -175.007
hc22        1.098538
hcc22       109.195
dih22        69.317
hc23        1.098886
hcc23       109.146
dih23        65.551
hc24        1.097376
hcc24       110.388
dih24      -177.826
hc25        1.097218
hcsi25      109.417
dih25      -179.972
hc26        1.095448
hcsi26      111.989
dih26       -61.104
hc27        1.095076
hcsi27      112.567
dih27        60.551
hc28        1.096625
hcsi28      110.346
dih28       170.827
hc29        1.095753
hcsi29      112.012
dih29       -69.518
hc30        1.096524
hcsi30      111.670
dih30        51.334
hc31        1.096489
hcsi31      110.540
dih31      -178.082
hc32        1.096299
hcsi32      111.529
dih32       -58.442
hc33        1.096091
hcsi33      112.035
dih33        62.229
hc34        1.097218
hcsi34      109.417
dih34      -179.968
hc35        1.095449
hcsi35      111.989
dih35       -61.100
hc36        1.095075
hcsi36      112.568
dih36        60.556
hc37        1.096625
hcsi37      110.347
dih37       170.828
hc38        1.095754
hcsi38      112.011
dih38       -69.516
hc39        1.096523
hcsi39      111.670
dih39        51.335
hc40        1.096489
hcsi40      110.540
dih40      -178.079
hc41        1.096298
hcsi41      111.530
dih41       -58.439
hc42        1.096091
hcsi42      112.035
dih42        62.232
 
 
 
 

