$RunGaus
%mem=8000Mb
%nproc=4
# mp2/cc-pVTZ

cis1-3dimethylcyclohex-ax-ax_single_point

0 1 
 c
 c   1 cc2     
 c    2 cc3         1 ccc3      
 c    3 cc4         2 ccc4          1 dih4   
 c    4 cc5         3 ccc5          2 dih5   
 c    5 cc6         4 ccc6          3 dih6   
 c    4 cc7         3 ccc7          2 dih7   
 c    6 cc8         5 ccc8          4 dih8   
 h    3 hc9         4 hcc9          5 dih9   
 h    3 hc10        4 hcc10         5 dih10  
 h    4 hc11        3 hcc11         2 dih11  
 h    5 hc12        4 hcc12         3 dih12  
 h    2 hc13        3 hcc13         4 dih13  
 h    2 hc14        3 hcc14         4 dih14  
 h    6 hc15        5 hcc15         4 dih15  
 h    1 hc16        2 hcc16         3 dih16  
 h    1 hc17        2 hcc17         3 dih17  
 h    7 hc18        4 hcc18         3 dih18  
 h    7 hc19        4 hcc19         3 dih19  
 h    7 hc20        4 hcc20         3 dih20  
 h    5 hc21        4 hcc21         3 dih21  
 h    8 hc22        6 hcc22         5 dih22  
 h    8 hc23        6 hcc23         5 dih23  
 h    8 hc24        6 hcc24         5 dih24  
 
cc2         1.537694
cc3         1.537694
ccc3        111.019
cc4         1.545384
ccc4        112.840
dih4         56.628
cc5         1.549452
ccc5        110.156
dih5        -51.489
cc6         1.549438
ccc6        116.585
dih6         48.644
cc7         1.539337
ccc7        112.296
dih7         77.378
cc8         1.539335
ccc8        114.476
dih8         79.028
hc9         1.097890
hcc9        109.866
dih9       -175.216
hc10        1.099754
hcc10       108.721
dih10        68.729
hc11        1.099540
hcc11       107.253
dih11      -166.616
hc12        1.099463
hcc12       107.136
dih12       -71.298
hc13        1.097946
hcc13       110.117
dih13       -65.591
hc14        1.097159
hcc14       109.745
dih14       178.123
hc15        1.099542
hcc15       106.171
dih15      -164.453
hc16        1.099750
hcc16       108.342
dih16        63.808
hc17        1.097890
hcc17       110.448
dih17       179.968
hc18        1.096496
hcc18       110.258
dih18        63.507
hc19        1.096171
hcc19       111.039
dih19      -177.271
hc20        1.093373
hcc20       112.900
dih20       -56.481
hc21        1.098500
hcc21       109.694
dih21       174.053
hc22        1.096171
hcc22       111.039
dih22        50.696
hc23        1.096498
hcc23       110.258
dih23       169.917
hc24        1.093372
hcc24       112.900
dih24       -70.095
 
 
 

