$RunGaus
%mem=8000Mb
%nproc=4
# mp2/cc-pVTZ

cis1-3dimethylcyclohex-eq-eq_single_point

0 1 
 c
 c   1 cc2     
 c    2 cc3         1 ccc3      
 c    3 cc4         2 ccc4          1 dih4   
 c    4 cc5         3 ccc5          2 dih5   
 c    5 cc6         4 ccc6          3 dih6   
 c    4 cc7         3 ccc7          2 dih7   
 c    6 cc8         5 ccc8          4 dih8   
 h    3 hc9         4 hcc9          5 dih9   
 h    3 hc10        4 hcc10         5 dih10  
 h    4 hc11        3 hcc11         2 dih11  
 h    5 hc12        4 hcc12         3 dih12  
 h    2 hc13        3 hcc13         4 dih13  
 h    2 hc14        3 hcc14         4 dih14  
 h    6 hc15        5 hcc15         4 dih15  
 h    1 hc16        2 hcc16         3 dih16  
 h    1 hc17        2 hcc17         3 dih17  
 h    7 hc18        4 hcc18         3 dih18  
 h    7 hc19        4 hcc19         3 dih19  
 h    7 hc20        4 hcc20         3 dih20  
 h    5 hc21        4 hcc21         3 dih21  
 h    8 hc22        6 hcc22         5 dih22  
 h    8 hc23        6 hcc23         5 dih23  
 h    8 hc24        6 hcc24         5 dih24  
 
cc2         1.536115
cc3         1.536039
ccc3        111.541
cc4         1.539960
ccc4        112.114
dih4         54.703
cc5         1.540175
ccc5        110.287
dih5        -53.988
cc6         1.540133
ccc6        113.173
dih6         54.553
cc7         1.533720
ccc7        111.794
dih7       -178.841
cc8         1.533734
ccc8        111.655
dih8       -179.488
hc9         1.097985
hcc9        109.876
dih9       -176.923
hc10        1.101046
hcc10       108.743
dih10        66.944
hc11        1.102051
hcc11       107.484
dih11        62.958
hc12        1.102065
hcc12       108.864
dih12       -66.642
hc13        1.099892
hcc13       109.225
dih13       -66.125
hc14        1.097151
hcc14       110.157
dih14       177.350
hc15        1.102050
hcc15       107.533
dih15        62.363
hc16        1.101038
hcc16       109.265
dih16        65.928
hc17        1.097975
hcc17       110.220
dih17      -177.436
hc18        1.096312
hcc18       111.327
dih18      -178.069
hc19        1.096302
hcc19       111.328
dih19       -57.766
hc20        1.097427
hcc20       110.933
dih20        62.092
hc21        1.098776
hcc21       109.700
dih21       177.426
hc22        1.096307
hcc22       111.327
dih22      -178.142
hc23        1.096314
hcc23       111.327
dih23       -57.841
hc24        1.097421
hcc24       110.934
dih24        62.000
 
 
 

