$RunGaus
%mem=8000Mb
%nproc=4
# mp2/cc-pVTZ

cyclohexanethiol-eq_single_point

0 1 
 c
 c   1 cc2     
 c    2 cc3         1 ccc3      
 c    3 cc4         2 ccc4          1 dih4   
 c    4 cc5         3 ccc5          2 dih5   
 c    5 cc6         4 ccc6          3 dih6   
 s    1 sc7         2 scc7          3 dih7   
 h    3 hc8         4 hcc8          5 dih8   
 h    3 hc9         4 hcc9          5 dih9   
 h    4 hc10        3 hcc10         2 dih10  
 h    4 hc11        3 hcc11         2 dih11  
 h    5 hc12        4 hcc12         3 dih12  
 h    5 hc13        4 hcc13         3 dih13  
 h    2 hc14        3 hcc14         4 dih14  
 h    2 hc15        3 hcc15         4 dih15  
 h    6 hc16        5 hcc16         4 dih16  
 h    6 hc17        5 hcc17         4 dih17  
 h    1 hc18        2 hcc18         3 dih18  
 h    7 hs19        1 hsc19         2 dih19  
 
cc2         1.536762
cc3         1.539105
ccc3        111.075
cc4         1.536382
ccc4        111.751
dih4         55.020
cc5         1.536325
ccc5        111.253
dih5        -54.520
cc6         1.539912
ccc6        111.545
dih6         54.516
sc7         1.855870
scc7        108.015
dih7       -179.654
hc8         1.096718
hcc8        110.430
dih8       -176.696
hc9         1.099505
hcc9        109.294
dih9         66.492
hc10        1.096837
hcc10       110.210
dih10      -177.138
hc11        1.099579
hcc11       109.225
dih11        66.112
hc12        1.099702
hcc12       109.288
dih12       -66.532
hc13        1.096802
hcc13       110.455
dih13       176.666
hc14        1.099087
hcc14       109.443
dih14       -65.312
hc15        1.096066
hcc15       110.295
dih15       177.298
hc16        1.096949
hcc16       110.133
dih16      -177.566
hc17        1.098101
hcc17       109.846
dih17        65.171
hc18        1.096950
hcc18       108.549
dih18        64.843
hs19        1.349181
hsc19        96.770
dih19      -179.287
 
 
 

