$RunGaus
%mem=8000Mb
%nproc=4
# mp2/cc-pVTZ

cyclohexanethiol-ax_single_point

0 1 
 c
 c   1 cc2     
 c    2 cc3         1 ccc3      
 c    3 cc4         2 ccc4          1 dih4   
 c    4 cc5         3 ccc5          2 dih5   
 c    5 cc6         4 ccc6          3 dih6   
 s    1 sc7         2 scc7          3 dih7   
 h    3 hc8         4 hcc8          5 dih8   
 h    3 hc9         4 hcc9          5 dih9   
 h    4 hc10        3 hcc10         2 dih10  
 h    4 hc11        3 hcc11         2 dih11  
 h    5 hc12        4 hcc12         3 dih12  
 h    5 hc13        4 hcc13         3 dih13  
 h    2 hc14        3 hcc14         4 dih14  
 h    2 hc15        3 hcc15         4 dih15  
 h    6 hc16        5 hcc16         4 dih16  
 h    6 hc17        5 hcc17         4 dih17  
 h    1 hc18        2 hcc18         3 dih18  
 h    7 hs19        1 hsc19         2 dih19  
 
cc2         1.539414
cc3         1.536602
ccc3        113.196
cc4         1.537213
ccc4        111.420
dih4         53.728
cc5         1.537228
ccc5        111.461
dih5        -54.801
cc6         1.538142
ccc6        111.385
dih6         54.798
sc7         1.867023
scc7        113.043
dih7         70.708
hc8         1.096802
hcc8        110.299
dih8       -176.641
hc9         1.097041
hcc9        109.418
dih9         66.125
hc10        1.096827
hcc10       110.143
dih10      -177.382
hc11        1.100445
hcc11       109.295
dih11        65.959
hc12        1.097676
hcc12       109.401
dih12       -66.669
hc13        1.096814
hcc13       110.320
dih13       176.470
hc14        1.101147
hcc14       109.048
dih14       -65.263
hc15        1.096615
hcc15       110.660
dih15       178.110
hc16        1.096018
hcc16       110.857
dih16      -178.017
hc17        1.099627
hcc17       108.868
dih17        65.076
hc18        1.094223
hcc18       109.526
dih18      -171.697
hs19        1.348583
hsc19        96.337
dih19        60.799
 
 
 

