$RunGaus
%mem=8000Mb
%nproc=4
# mp2/cc-pVTZ

cyclohexylphosphine-ax_single_point

0 1 
 c
 c   1 cc2     
 c    2 cc3         1 ccc3      
 c    3 cc4         2 ccc4          1 dih4   
 c    4 cc5         3 ccc5          2 dih5   
 c    5 cc6         4 ccc6          3 dih6   
 p    1 pc7         2 pcc7          3 dih7   
 h    3 hc8         4 hcc8          5 dih8   
 h    3 hc9         4 hcc9          5 dih9   
 h    4 hc10        3 hcc10         2 dih10  
 h    4 hc11        3 hcc11         2 dih11  
 h    5 hc12        4 hcc12         3 dih12  
 h    5 hc13        4 hcc13         3 dih13  
 h    2 hc14        3 hcc14         4 dih14  
 h    2 hc15        3 hcc15         4 dih15  
 h    6 hc16        5 hcc16         4 dih16  
 h    6 hc17        5 hcc17         4 dih17  
 h    1 hc18        2 hcc18         3 dih18  
 h    7 hp19        1 hpc19         2 dih19  
 h    7 hp20        1 hpc20         2 dih20  
 
cc2         1.545360
cc3         1.538513
ccc3        113.208
cc4         1.536909
ccc4        111.393
dih4         54.122
cc5         1.536905
ccc5        111.396
dih5        -54.940
cc6         1.538511
ccc6        111.393
dih6         54.940
pc7         1.903425
pcc7        111.135
dih7         71.974
hc8         1.097022
hcc8        110.281
dih8       -176.800
hc9         1.098137
hcc9        109.247
dih9         66.476
hc10        1.096935
hcc10       110.200
dih10      -177.578
hc11        1.100393
hcc11       109.201
dih11        65.756
hc12        1.098141
hcc12       109.248
dih12       -66.476
hc13        1.097022
hcc13       110.281
dih13       176.800
hc14        1.100481
hcc14       108.636
dih14       -65.449
hc15        1.097455
hcc15       110.407
dih15       178.537
hc16        1.097455
hcc16       110.407
dih16      -178.539
hc17        1.100481
hcc17       108.636
dih17        65.447
hc18        1.095406
hcc18       108.457
dih18      -170.606
hp19        1.425202
hpc19        96.534
dih19        71.109
hp20        1.425204
hpc20        96.536
dih20       165.450
 
 
 

