$RunGaus
%mem=8000Mb
%nproc=4
# mp2/cc-pVTZ

fluorocyclohexane-eq_single_point

0 1 
 c
 c   1 cc2     
 c    2 cc3         1 ccc3      
 c    3 cc4         2 ccc4          1 dih4   
 c    4 cc5         3 ccc5          2 dih5   
 c    5 cc6         4 ccc6          3 dih6   
 f    2 fc7         3 fcc7          4 dih7   
 h    3 hc8         4 hcc8          5 dih8   
 h    3 hc9         4 hcc9          5 dih9   
 h    4 hc10        3 hcc10         2 dih10  
 h    5 hc11        4 hcc11         3 dih11  
 h    5 hc12        4 hcc12         3 dih12  
 h    2 hc13        3 hcc13         4 dih13  
 h    6 hc14        5 hcc14         4 dih14  
 h    6 hc15        5 hcc15         4 dih15  
 h    1 hc16        2 hcc16         3 dih16  
 h    1 hc17        2 hcc17         3 dih17  
 h    4 hc18        3 hcc18         2 dih18  
 
cc2         1.523189
cc3         1.523180
ccc3        112.450
cc4         1.540274
ccc4        110.626
dih4         56.091
cc5         1.537543
ccc5        111.532
dih5        -54.727
cc6         1.537525
ccc6        111.386
dih6         54.330
fc7         1.418074
fcc7        108.986
dih7        177.050
hc8         1.095699
hcc8        111.015
dih8       -176.747
hc9         1.098172
hcc9        109.948
dih9         64.778
hc10        1.096106
hcc10       109.655
dih10      -177.471
hc11        1.099351
hcc11       109.225
dih11       -66.406
hc12        1.096694
hcc12       110.142
dih12       176.847
hc13        1.098472
hcc13       110.324
dih13       -67.536
hc14        1.096108
hcc14       110.512
dih14      -176.585
hc15        1.099599
hcc15       109.234
dih15        66.731
hc16        1.098172
hcc16       108.245
dih16        64.433
hc17        1.095695
hcc17       109.688
dih17      -178.886
hc18        1.099597
hcc18       109.407
dih18        66.235
 
 
 

