$RunGaus
%mem=8000Mb
%nproc=4
# mp2/cc-pVTZ

hydroxycyclohexane-ax_single_point

0 1 
 c
 c   1 cc2     
 c    2 cc3         1 ccc3      
 c    3 cc4         2 ccc4          1 dih4   
 c    4 cc5         3 ccc5          2 dih5   
 c    5 cc6         4 ccc6          3 dih6   
 o    1 oc7         2 occ7          3 dih7   
 h    3 hc8         4 hcc8          5 dih8   
 h    3 hc9         4 hcc9          5 dih9   
 h    4 hc10        3 hcc10         2 dih10  
 h    4 hc11        3 hcc11         2 dih11  
 h    5 hc12        4 hcc12         3 dih12  
 h    5 hc13        4 hcc13         3 dih13  
 h    2 hc14        3 hcc14         4 dih14  
 h    2 hc15        3 hcc15         4 dih15  
 h    6 hc16        5 hcc16         4 dih16  
 h    6 hc17        5 hcc17         4 dih17  
 h    1 hc18        2 hcc18         3 dih18  
 h    7 ho19        1 hoc19         2 dih19  
 
cc2         1.537899
cc3         1.536817
ccc3        112.507
cc4         1.537584
ccc4        111.269
dih4         54.227
cc5         1.537443
ccc5        111.197
dih5        -55.129
cc6         1.537110
ccc6        111.441
dih6         55.171
oc7         1.439427
occ7        111.580
dih7         66.424
hc8         1.097014
hcc8        110.457
dih8       -177.282
hc9         1.097425
hcc9        109.168
dih9         65.567
hc10        1.097050
hcc10       110.158
dih10      -177.730
hc11        1.100744
hcc11       109.227
dih11        65.625
hc12        1.096783
hcc12       109.394
dih12       -65.516
hc13        1.096999
hcc13       110.321
dih13       177.195
hc14        1.099679
hcc14       109.673
dih14       -66.044
hc15        1.099433
hcc15       110.618
dih15       177.203
hc16        1.095885
hcc16       110.737
dih16      -176.197
hc17        1.098972
hcc17       109.653
dih17        65.852
hc18        1.101192
hcc18       109.222
dih18      -173.191
ho19        0.965997
hoc19       108.795
dih19        57.582
 
 
 

