$RunGaus
%mem=8000Mb
%nproc=4
# mp2/cc-pVTZ

Me3SiO-cycl-ax_single_point

0 1 
 c
 c   1 cc2     
 c    2 cc3         1 ccc3      
 c    3 cc4         2 ccc4          1 dih4   
 c    4 cc5         3 ccc5          2 dih5   
 c    5 cc6         4 ccc6          3 dih6   
 o    1 oc7         2 occ7          3 dih7   
si    7 sio8        1 sioc8         2 dih8   
 c    8 csi9        7 csio9         1 dih9   
 c    8 csi10       7 csio10        1 dih10  
 c    8 csi11       7 csio11        1 dih11  
 h    3 hc12        4 hcc12         5 dih12  
 h    3 hc13        4 hcc13         5 dih13  
 h    4 hc14        3 hcc14         2 dih14  
 h    4 hc15        3 hcc15         2 dih15  
 h    5 hc16        4 hcc16         3 dih16  
 h    5 hc17        4 hcc17         3 dih17  
 h    2 hc18        3 hcc18         4 dih18  
 h    2 hc19        3 hcc19         4 dih19  
 h    6 hc20        5 hcc20         4 dih20  
 h    6 hc21        5 hcc21         4 dih21  
 h    1 hc22        2 hcc22         3 dih22  
 h   10 hc23        8 hcsi23        7 dih23  
 h   10 hc24        8 hcsi24        7 dih24  
 h   10 hc25        8 hcsi25        7 dih25  
 h   11 hc26        8 hcsi26        7 dih26  
 h   11 hc27        8 hcsi27        7 dih27  
 h   11 hc28        8 hcsi28        7 dih28  
 h    9 hc29        8 hcsi29        7 dih29  
 h    9 hc30        8 hcsi30        7 dih30  
 h    9 hc31        8 hcsi31        7 dih31  
 
cc2         1.537004
cc3         1.537032
ccc3        112.072
cc4         1.537691
ccc4        111.352
dih4         54.763
cc5         1.537502
ccc5        111.271
dih5        -54.911
cc6         1.537086
ccc6        111.352
dih6         54.938
oc7         1.435459
occ7        109.467
dih7         66.371
sio8        1.678411
sioc8       125.885
dih8        114.546
csi9        1.890645
csio9       110.342
dih9         59.745
csi10       1.879838
csio10      104.827
dih10       179.293
csi11       1.890881
csio11      110.589
dih11       -61.138
hc12        1.097058
hcc12       109.332
dih12        65.550
hc13        1.097025
hcc13       110.375
dih13      -177.135
hc14        1.100666
hcc14       109.265
dih14        65.845
hc15        1.097142
hcc15       110.205
dih15      -177.472
hc16        1.097008
hcc16       110.378
dih16       177.145
hc17        1.097025
hcc17       109.354
dih17       -65.516
hc18        1.096301
hcc18       110.725
dih18       177.028
hc19        1.099832
hcc19       109.581
dih19       -65.242
hc20        1.099760
hcc20       109.607
dih20        65.230
hc21        1.096266
hcc21       110.736
dih21      -176.934
hc22        1.101188
hcc22       108.797
dih22      -173.648
hc23        1.096304
hcsi23      111.235
dih23       179.315
hc24        1.095484
hcsi24      110.875
dih24       -60.514
hc25        1.095509
hcsi25      110.870
dih25        59.151
hc26        1.096866
hcsi26      110.876
dih26      -179.056
hc27        1.095839
hcsi27      111.100
dih27       -59.223
hc28        1.096383
hcsi28      111.803
dih28        61.214
hc29        1.096824
hcsi29      110.890
dih29       179.551
hc30        1.096384
hcsi30      111.812
dih30       -60.729
hc31        1.095859
hcsi31      111.081
dih31        59.700
 
 
 

