$RunGaus
%mem=8000Mb
%nproc=4
# mp2/cc-pVTZ

Me3SiO-cycl-eq_single_point

0 1 
 c
 c   1 cc2     
 c    2 cc3         1 ccc3      
 c    3 cc4         2 ccc4          1 dih4   
 c    4 cc5         3 ccc5          2 dih5   
 c    5 cc6         4 ccc6          3 dih6   
 o    1 oc7         2 occ7          3 dih7   
si    7 sio8        1 sioc8         2 dih8   
 c    8 csi9        7 csio9         1 dih9   
 c    8 csi10       7 csio10        1 dih10  
 c    8 csi11       7 csio11        1 dih11  
 h    3 hc12        4 hcc12         5 dih12  
 h    3 hc13        4 hcc13         5 dih13  
 h    4 hc14        3 hcc14         2 dih14  
 h    4 hc15        3 hcc15         2 dih15  
 h    5 hc16        4 hcc16         3 dih16  
 h    5 hc17        4 hcc17         3 dih17  
 h    2 hc18        3 hcc18         4 dih18  
 h    2 hc19        3 hcc19         4 dih19  
 h    6 hc20        5 hcc20         4 dih20  
 h    6 hc21        5 hcc21         4 dih21  
 h    1 hc22        2 hcc22         3 dih22  
 h   10 hc23        8 hcsi23        7 dih23  
 h   10 hc24        8 hcsi24        7 dih24  
 h   10 hc25        8 hcsi25        7 dih25  
 h   11 hc26        8 hcsi26        7 dih26  
 h   11 hc27        8 hcsi27        7 dih27  
 h   11 hc28        8 hcsi28        7 dih28  
 h    9 hc29        8 hcsi29        7 dih29  
 h    9 hc30        8 hcsi30        7 dih30  
 h    9 hc31        8 hcsi31        7 dih31  
 
cc2         1.535687
cc3         1.538772
ccc3        111.674
cc4         1.536675
ccc4        111.643
dih4         54.838
cc5         1.536893
ccc5        111.224
dih5        -54.222
cc6         1.537261
ccc6        111.539
dih6         54.284
oc7         1.427212
occ7        111.581
dih7       -175.557
sio8        1.678573
sioc8       129.347
dih8        -84.207
csi9        1.889404
csio9       111.057
dih9         86.179
csi10       1.881009
csio10      104.696
dih10      -155.273
csi11       1.890502
csio11      110.473
dih11       -35.559
hc12        1.100121
hcc12       109.147
dih12        66.787
hc13        1.096931
hcc13       110.414
dih13      -176.691
hc14        1.099704
hcc14       109.183
dih14        66.352
hc15        1.097196
hcc15       110.203
dih15      -176.881
hc16        1.096835
hcc16       110.380
dih16       176.713
hc17        1.100150
hcc17       109.166
dih17       -66.767
hc18        1.096811
hcc18       110.261
dih18       177.315
hc19        1.098757
hcc19       110.045
dih19       -65.134
hc20        1.098700
hcc20       110.065
dih20        64.854
hc21        1.096317
hcc21       110.923
dih21      -177.164
hc22        1.103070
hcc22       108.512
dih22        63.809
hc23        1.096502
hcsi23      111.641
dih23      -177.689
hc24        1.095939
hcsi24      110.542
dih24       -57.602
hc25        1.095682
hcsi25      110.916
dih25        61.701
hc26        1.096952
hcsi26      110.251
dih26      -176.066
hc27        1.096205
hcsi27      111.563
dih27       -56.626
hc28        1.096266
hcsi28      112.181
dih28        64.549
hc29        1.097256
hcsi29      110.847
dih29       172.985
hc30        1.095936
hcsi30      112.047
dih30       -66.856
hc31        1.096113
hcsi31      110.792
dih31        53.482
 
 
 

