$RunGaus
%mem=8000Mb
%nproc=4
# mp2/cc-pVTZ

me_cyclohexanecarboxylate-eq_single_point

0 1 
 c
 c   1 cc2     
 c    2 cc3         1 ccc3      
 c    3 cc4         2 ccc4          1 dih4   
 c    4 cc5         3 ccc5          2 dih5   
 c    5 cc6         4 ccc6          3 dih6   
 c    2 cc7         3 ccc7          4 dih7   
 o    7 oc8         2 occ8          3 dih8   
 c    8 co9         7 coc9          2 dih9   
 o    7 oc10        2 occ10         3 dih10  
 h    3 hc11        4 hcc11         5 dih11  
 h    3 hc12        4 hcc12         5 dih12  
 h    4 hc13        3 hcc13         2 dih13  
 h    4 hc14        3 hcc14         2 dih14  
 h    5 hc15        4 hcc15         3 dih15  
 h    5 hc16        4 hcc16         3 dih16  
 h    2 hc17        3 hcc17         4 dih17  
 h    6 hc18        5 hcc18         4 dih18  
 h    6 hc19        5 hcc19         4 dih19  
 h    1 hc20        2 hcc20         3 dih20  
 h    1 hc21        2 hcc21         3 dih21  
 h    9 hc22        8 hco22         7 dih22  
 h    9 hc23        8 hco23         7 dih23  
 h    9 hc24        8 hco24         7 dih24  
 
cc2         1.550193
cc3         1.540948
ccc3        110.787
cc4         1.536402
ccc4        111.355
dih4         55.306
cc5         1.536529
ccc5        111.763
dih5        -55.240
cc6         1.536415
ccc6        111.333
dih6         54.589
cc7         1.516786
ccc7        111.355
dih7        177.368
oc8         1.355356
occ8        111.659
dih8        141.018
co9         1.440732
coc9        115.965
dih9        177.417
oc10        1.215722
occ10       125.481
dih10       -40.575
hc11        1.096786
hcc11       110.256
dih11      -177.430
hc12        1.096734
hcc12       110.091
dih12        65.262
hc13        1.096759
hcc13       109.623
dih13      -177.802
hc14        1.099935
hcc14       109.414
dih14        65.860
hc15        1.099559
hcc15       109.197
dih15       -66.033
hc16        1.096887
hcc16       110.243
dih16       177.192
hc17        1.097104
hcc17       109.512
dih17       -63.842
hc18        1.096885
hcc18       110.381
dih18      -176.825
hc19        1.099680
hcc19       109.317
dih19        66.329
hc20        1.098213
hcc20       108.597
dih20        65.453
hc21        1.096470
hcc21       109.808
dih21      -177.728
hc22        1.089762
hco22       105.435
dih22      -179.730
hc23        1.092655
hco23       110.428
dih23        60.659
hc24        1.092771
hco24       110.443
dih24       -60.085
 
 
 

