$RunGaus
%mem=8000Mb
%nproc=4
# mp2/cc-pVTZ

methoxycyclohexane-ax_single_point

0 1 
 c
 c   1 cc2     
 c    2 cc3         1 ccc3      
 c    3 cc4         2 ccc4          1 dih4   
 c    4 cc5         3 ccc5          2 dih5   
 c    5 cc6         4 ccc6          3 dih6   
 o    1 oc7         2 occ7          3 dih7   
 c    7 co8         1 coc8          2 dih8   
 h    3 hc9         4 hcc9          5 dih9   
 h    3 hc10        4 hcc10         5 dih10  
 h    4 hc11        3 hcc11         2 dih11  
 h    4 hc12        3 hcc12         2 dih12  
 h    5 hc13        4 hcc13         3 dih13  
 h    5 hc14        4 hcc14         3 dih14  
 h    2 hc15        3 hcc15         4 dih15  
 h    2 hc16        3 hcc16         4 dih16  
 h    6 hc17        5 hcc17         4 dih17  
 h    6 hc18        5 hcc18         4 dih18  
 h    1 hc19        2 hcc19         3 dih19  
 h    8 hc20        7 hco20         1 dih20  
 h    8 hc21        7 hco21         1 dih21  
 h    8 hc22        7 hco22         1 dih22  
 
cc2         1.540255
cc3         1.537476
ccc3        112.133
cc4         1.537150
ccc4        111.388
dih4         54.694
cc5         1.537137
ccc5        111.292
dih5        -54.954
cc6         1.537764
ccc6        111.392
dih6         54.714
oc7         1.434729
occ7        112.207
dih7         65.899
co8         1.415006
coc8        114.941
dih8         75.219
hc9         1.097038
hcc9        110.391
dih9       -177.195
hc10        1.097602
hcc10       109.243
dih10        65.651
hc11        1.097069
hcc11       110.173
dih11      -177.554
hc12        1.100638
hcc12       109.192
dih12        65.806
hc13        1.096957
hcc13       109.431
dih13       -65.905
hc14        1.096995
hcc14       110.333
dih14       176.796
hc15        1.099429
hcc15       109.675
dih15       -64.912
hc16        1.096508
hcc16       110.644
dih16       178.383
hc17        1.095803
hcc17       110.730
dih17      -176.441
hc18        1.099095
hcc18       109.541
dih18        65.574
hc19        1.103281
hcc19       109.281
dih19      -174.164
hc20        1.092802
hco20       106.862
dih20       173.757
hc21        1.099451
hco21       112.614
dih21       -67.138
hc22        1.101537
hco22       111.275
dih22        54.999
 
 
 

