$RunGaus
%mem=16000Mb
%nproc=8
# mp2/cc-pVTZ

phenylcyclohexane-eq_single_point

0 1 
 c
 c   1 cc2     
 c    2 cc3         1 ccc3      
 c    3 cc4         2 ccc4          1 dih4   
 c    4 cc5         3 ccc5          2 dih5   
 c    5 cc6         4 ccc6          3 dih6   
 c    4 cc7         5 ccc7          6 dih7   
 c    7 cc8         4 ccc8          5 dih8   
 c    8 cc9         7 ccc9          4 dih9   
 c    9 cc10        8 ccc10         7 dih10  
 c   10 cc11        9 ccc11         8 dih11  
 c   11 cc12       10 ccc12         9 dih12  
 h    8 hc13        9 hcc13        10 dih13  
 h    8 hc14        9 hcc14        10 dih14  
 h    9 hc15        8 hcc15         7 dih15  
 h   10 hc16        9 hcc16         8 dih16  
 h    7 hc17        8 hcc17         9 dih17  
 h   11 hc18       10 hcc18         9 dih18  
 h   12 hc19        7 hcc19         8 dih19  
 h   12 hc20        7 hcc20         8 dih20  
 h   10 hc21        9 hcc21         8 dih21  
 h    9 hc22        8 hcc22         7 dih22  
 h   11 hc23       10 hcc23         9 dih23  
 h    5 hc24        4 hcc24         7 dih24  
 h    3 hc25        4 hcc25         7 dih25  
 h    2 hc26        3 hcc26         4 dih26  
 h    6 hc27        5 hcc27         4 dih27  
 h    1 hc28        2 hcc28         3 dih28  
 
cc2         1.398189
cc3         1.396480
ccc3        120.272
cc4         1.404928
ccc4        121.115
dih4         -0.001
cc5         1.402708
ccc5        117.869
dih5          0.001
cc6         1.398110
ccc6        121.306
dih6          0.000
cc7         1.520109
ccc7        120.537
dih7       -179.998
cc8         1.546802
ccc8        112.588
dih8        117.321
cc9         1.537187
ccc9        111.852
dih9       -178.502
cc10        1.536420
ccc10       111.702
dih10       -55.208
cc11        1.536412
ccc11       111.297
dih11        54.411
cc12        1.537187
ccc12       111.702
dih12       -54.413
hc13        1.096803
hcc13       110.383
dih13      -177.522
hc14        1.099111
hcc14       109.230
dih14        65.781
hc15        1.097135
hcc15       109.887
dih15      -178.005
hc16        1.100033
hcc16       109.180
dih16       -66.182
hc17        1.100337
hcc17       107.034
dih17       -61.187
hc18        1.097135
hcc18       110.333
dih18      -176.956
hc19        1.099110
hcc19       109.185
dih19        66.140
hc20        1.096803
hcc20       109.600
dih20      -177.635
hc21        1.097094
hcc21       110.280
dih21       177.139
hc22        1.099927
hcc22       109.164
dih22        65.634
hc23        1.099932
hcc23       109.181
dih23        66.418
hc24        1.087686
hcc24       119.209
dih24         0.000
hc25        1.086789
hcc25       119.812
dih25         0.000
hc26        1.086655
hcc26       119.691
dih26       179.999
hc27        1.086640
hcc27       119.754
dih27       179.999
hc28        1.086220
hcc28       120.312
dih28      -180.000
 
 
 

