$RunGaus
%mem=8000Mb
%nproc=4
# mp2/cc-pVTZ

t-butylcyclohexane-eq_single_point

0 1 
 c
 c   1 cc2     
 c    2 cc3         1 ccc3      
 c    3 cc4         2 ccc4          1 dih4   
 c    4 cc5         3 ccc5          2 dih5   
 c    5 cc6         4 ccc6          3 dih6   
 c    1 cc7         2 ccc7          3 dih7   
 c    7 cc8         1 ccc8          2 dih8   
 c    7 cc9         1 ccc9          2 dih9   
 c    7 cc10        1 ccc10         2 dih10  
 h    3 hc11        4 hcc11         5 dih11  
 h    3 hc12        4 hcc12         5 dih12  
 h    4 hc13        3 hcc13         2 dih13  
 h    4 hc14        3 hcc14         2 dih14  
 h    5 hc15        4 hcc15         3 dih15  
 h    5 hc16        4 hcc16         3 dih16  
 h    2 hc17        3 hcc17         4 dih17  
 h    2 hc18        3 hcc18         4 dih18  
 h    6 hc19        5 hcc19         4 dih19  
 h    6 hc20        5 hcc20         4 dih20  
 h    1 hc21        2 hcc21         3 dih21  
 h    9 hc22        7 hcc22         1 dih22  
 h    9 hc23        7 hcc23         1 dih23  
 h    9 hc24        7 hcc24         1 dih24  
 h   10 hc25        7 hcc25         1 dih25  
 h   10 hc26        7 hcc26         1 dih26  
 h   10 hc27        7 hcc27         1 dih27  
 h    8 hc28        7 hcc28         1 dih28  
 h    8 hc29        7 hcc29         1 dih29  
 h    8 hc30        7 hcc30         1 dih30  
 
cc2         1.545851
cc3         1.538783
ccc3        112.228
cc4         1.534497
ccc4        111.849
dih4         55.950
cc5         1.534491
ccc5        110.826
dih5        -53.993
cc6         1.538783
ccc6        111.848
dih6         53.995
cc7         1.570822
ccc7        114.332
dih7        175.191
cc8         1.543668
ccc8        112.430
dih8         63.278
cc9         1.545645
ccc9        109.866
dih9        -57.806
cc10        1.545648
ccc10       109.860
dih10      -175.642
hc11        1.097360
hcc11       110.376
dih11      -176.541
hc12        1.100041
hcc12       109.146
dih12        66.831
hc13        1.097317
hcc13       110.444
dih13      -176.719
hc14        1.100035
hcc14       109.239
dih14        66.414
hc15        1.100041
hcc15       109.147
dih15       -66.830
hc16        1.097360
hcc16       110.376
dih16       176.541
hc17        1.099399
hcc17       108.732
dih17       -65.317
hc18        1.094780
hcc18       108.992
dih18       178.897
hc19        1.094787
hcc19       108.994
dih19      -178.901
hc20        1.099394
hcc20       108.730
dih20        65.313
hc21        1.103281
hcc21       106.665
dih21        59.275
hc22        1.096175
hcc22       110.259
dih22      -173.373
hc23        1.096929
hcc23       111.211
dih23       -54.063
hc24        1.094080
hcc24       112.380
dih24        67.074
hc25        1.096177
hcc25       110.260
dih25       173.381
hc26        1.094084
hcc26       112.379
dih26       -67.065
hc27        1.096927
hcc27       111.211
dih27        54.070
hc28        1.096402
hcc28       110.109
dih28      -179.999
hc29        1.095059
hcc29       111.955
dih29       -60.695
hc30        1.095053
hcc30       111.955
dih30        60.697
 
 
 

