$RunGaus
%mem=8000Mb
%nproc=4
# mp2/cc-pVTZ

trans1-2dichlorocycloh-eq-eq_single_point

0 1 
 c
 c   1 cc2     
 c    2 cc3         1 ccc3      
 c    3 cc4         2 ccc4          1 dih4   
 c    4 cc5         3 ccc5          2 dih5   
 c    5 cc6         4 ccc6          3 dih6   
cl    4 clc7        3 clcc7         2 dih7   
cl    5 clc8        4 clcc8         3 dih8   
 h    3 hc9         4 hcc9          5 dih9   
 h    3 hc10        4 hcc10         5 dih10  
 h    4 hc11        3 hcc11         2 dih11  
 h    5 hc12        4 hcc12         3 dih12  
 h    2 hc13        3 hcc13         4 dih13  
 h    2 hc14        3 hcc14         4 dih14  
 h    6 hc15        5 hcc15         4 dih15  
 h    6 hc16        5 hcc16         4 dih16  
 h    1 hc17        2 hcc17         3 dih17  
 h    1 hc18        2 hcc18         3 dih18  
 
cc2         1.533766
cc3         1.536705
ccc3        110.812
cc4         1.534917
ccc4        111.641
dih4         55.831
cc5         1.530013
ccc5        111.188
dih5        -55.321
cc6         1.534912
ccc6        111.189
dih6         54.707
clc7        1.826762
clcc7       108.867
dih7       -178.367
clc8        1.826777
clcc8       111.361
dih8        176.308
hc9         1.097321
hcc9        108.689
dih9         65.905
hc10        1.094450
hcc10       108.683
dih10      -178.187
hc11        1.093290
hcc11       110.785
dih11        66.670
hc12        1.093289
hcc12       109.486
dih12       -68.038
hc13        1.096031
hcc13       109.307
dih13       178.155
hc14        1.098954
hcc14       109.762
dih14       -65.278
hc15        1.097322
hcc15       108.690
dih15        65.903
hc16        1.094449
hcc16       108.683
dih16      -178.188
hc17        1.096027
hcc17       110.747
dih17      -177.200
hc18        1.098953
hcc18       109.534
dih18        65.523
 
 
 

