$RunGaus
%mem=8000Mb
%nproc=4
# mp2/cc-pVTZ

trans1-2dimethylcycloh-eq-eq_single_point

0 1 
 c
 c   1 cc2     
 c    2 cc3         1 ccc3      
 c    3 cc4         2 ccc4          1 dih4   
 c    4 cc5         3 ccc5          2 dih5   
 c    5 cc6         4 ccc6          3 dih6   
 c    4 cc7         3 ccc7          2 dih7   
 c    5 cc8         4 ccc8          3 dih8   
 h    3 hc9         4 hcc9          5 dih9   
 h    3 hc10        4 hcc10         5 dih10  
 h    4 hc11        3 hcc11         2 dih11  
 h    5 hc12        4 hcc12         3 dih12  
 h    2 hc13        3 hcc13         4 dih13  
 h    2 hc14        3 hcc14         4 dih14  
 h    6 hc15        5 hcc15         4 dih15  
 h    6 hc16        5 hcc16         4 dih16  
 h    1 hc17        2 hcc17         3 dih17  
 h    1 hc18        2 hcc18         3 dih18  
 h    7 hc19        4 hcc19         3 dih19  
 h    7 hc20        4 hcc20         3 dih20  
 h    7 hc21        4 hcc21         3 dih21  
 h    8 hc22        5 hcc22         4 dih22  
 h    8 hc23        5 hcc23         4 dih23  
 h    8 hc24        5 hcc24         4 dih24  
 
cc2         1.534697
cc3         1.534430
ccc3        111.041
cc4         1.542614
ccc4        113.002
dih4         55.052
cc5         1.551132
ccc5        110.738
dih5        -54.516
cc6         1.542615
ccc6        110.738
dih6         53.073
cc7         1.536282
ccc7        110.232
dih7        179.554
cc8         1.536279
ccc8        113.108
dih8        177.378
hc9         1.101090
hcc9        108.690
dih9         66.899
hc10        1.097933
hcc10       109.322
dih10      -177.524
hc11        1.103045
hcc11       107.558
dih11        62.136
hc12        1.103045
hcc12       107.046
dih12       -63.894
hc13        1.097270
hcc13       110.190
dih13       177.833
hc14        1.099930
hcc14       109.265
dih14       -65.468
hc15        1.101090
hcc15       108.690
dih15        66.900
hc16        1.097934
hcc16       109.322
dih16      -177.524
hc17        1.097272
hcc17       110.509
dih17      -176.734
hc18        1.099930
hcc18       109.207
dih18        66.417
hc19        1.096193
hcc19       110.638
dih19       -52.444
hc20        1.097775
hcc20       110.882
dih20        66.738
hc21        1.093971
hcc21       112.400
dih21      -172.506
hc22        1.096194
hcc22       110.638
dih22      -177.023
hc23        1.097775
hcc23       110.882
dih23       -57.841
hc24        1.093971
hcc24       112.400
dih24        62.915
 
 
 

