# opt dreiding

2-methylthiane-eq

0 1
 C                 -0.34325000   -1.83565625   -0.71831250
 C                 -1.23725000   -1.35565625    0.43668750
 S                 -1.12625000    0.43734375    0.48268750
 C                  1.11475000   -1.35265625   -0.59931250
 C                  0.60175000    0.94634375    0.43268750
 C                  1.26675000    0.17534375   -0.72131250
 H                 -0.76725000   -1.50365625   -1.69731250
 H                 -0.35725000   -2.95265625   -0.73531250
 H                 -0.86425000   -1.78665625    1.39468750
 H                 -2.29025000   -1.69365625    0.29768750
 H                  1.71675000   -1.83565625   -1.40631250
 H                  1.54575000   -1.69665625    0.37068750
 H                  1.09975000    0.65834375    1.38968750
 H                  2.35375000    0.43234375   -0.73731250
 H                  0.85075000    0.51034375   -1.70131250
 C                  0.69075000    2.46634375    0.25068750
 H                  1.75575000    2.79434375    0.21368750
 H                  0.20875000    3.01034375    1.09668750
 H                  0.20675000    2.80134375   -0.69531250

 1 2 1.0 4 1.0 7 1.0 8 1.0
 2 3 1.0 9 1.0 10 1.0
 3 5 1.0
 4 6 1.0 11 1.0 12 1.0
 5 6 1.0 13 1.0 16 1.0
 6 14 1.0 15 1.0
 7
 8
 9
 10
 11
 12
 13
 14
 15
 16 17 1.0 18 1.0 19 1.0
 17
 18
 19

