# opt dreiding

2-propanethiol-a

0 1
 C                 -1.26035714    0.37164286   -1.05359524
 C                 -0.58835714    0.01364286    0.27840476
 S                  1.21664286    0.64164286    0.22040476
 H                  2.10464286    0.20764286   -0.69059524
 H                 -2.31935714    0.02664286   -1.06359524
 H                 -1.26935714    1.47364286   -1.22159524
 H                 -1.12235714    0.51964286    1.11840476
 C                 -0.55835714   -1.50035714    0.52240476
 H                 -0.06135714   -1.74835714    1.48940476
 H                 -0.01935714   -2.03735714   -0.29159524
 H                 -1.59335714   -1.91135714    0.56640476
 H                 -0.74335714   -0.10635714   -1.91659524

 1 2 1.0 5 1.0 6 1.0 12 1.0
 2 7 1.0 8 1.0
 3 4 1.0
 4
 5
 6
 7
 8 9 1.0 10 1.0 11 1.0
 9
 10
 11
 12

