# opt dreiding

2-propanethiol-g

0 1
 C                 -1.24685714    0.32971429   -1.06995238
 C                 -0.57485714   -0.02628571    0.26204762
 S                  1.23114286    0.59971429    0.20104762
 H                  1.54314286    1.89871429    0.05004762
 H                 -2.30585714   -0.01628571   -1.08095238
 H                 -1.25685714    1.43071429   -1.23995238
 H                 -1.10785714    0.48071429    1.10304762
 C                 -0.54585714   -1.54028571    0.50404762
 H                 -0.04885714   -1.79028571    1.47004762
 H                 -0.00685714   -2.07728571   -0.31095238
 H                 -1.58085714   -1.95128571    0.54804762
 H                 -0.72885714   -0.14928571   -1.93295238

 1 2 1.0 5 1.0 6 1.0 12 1.0
 2 7 1.0 8 1.0
 3 4 1.0
 4
 5
 6
 7
 8 9 1.0 10 1.0 11 1.0
 9
 10
 11
 12

