# opt dreiding

3-methylthiane-eq

0 1
 C                 -0.55932813   -1.62162500   -0.53123437
 C                 -1.44432813   -1.16162500    0.63776563
 S                 -1.42532813    0.63437500    0.63076562
 C                  0.87267187   -1.05862500   -0.46823438
 C                  0.26767187    1.22737500    0.52176563
 C                  0.95267187    0.47537500   -0.63523438
 H                 -1.02832813   -1.34062500   -1.50523438
 H                 -0.51332813   -2.73762500   -0.51923437
 H                 -1.02332813   -1.54562500    1.59476562
 H                 -2.48232813   -1.55762500    0.53876563
 H                  1.46967187   -1.53862500   -1.28123438
 H                  1.34867187   -1.35462500    0.49576562
 H                  0.80567187    1.01237500    1.47276562
 C                  2.42167187    0.92337500   -0.74523437
 H                  0.44967187    0.75037500   -1.59623438
 H                  0.29267187    2.32937500    0.35776562
 H                  2.99267188    0.66237500    0.17476563
 H                  2.93067187    0.43937500   -1.61023438
 H                  2.49667187    2.02537500   -0.89223438

 1 2 1.0 4 1.0 7 1.0 8 1.0
 2 3 1.0 9 1.0 10 1.0
 3 5 1.0
 4 6 1.0 11 1.0 12 1.0
 5 6 1.0 13 1.0 16 1.0
 6 14 1.0 15 1.0
 7
 8
 9
 10
 11
 12
 13
 14 17 1.0 18 1.0 19 1.0
 15
 16
 17
 18
 19

