# opt dreiding

3-methylthiane-ax

0 1
 C                 -0.30032812   -1.63239062   -0.36317187
 C                 -1.19832812   -1.16639063    0.79382813
 S                 -1.17132812    0.62960938    0.79182813
 C                  1.13067187   -1.06739063   -0.28717187
 C                  0.52367188    1.21960937    0.70982813
 C                  1.24567188    0.46760937   -0.42517187
 H                 -0.76432813   -1.37239062   -1.34417188
 H                 -0.25032812   -2.74839062   -0.34017187
 H                 -0.79132812   -1.55339063    1.75582813
 H                 -2.23532813   -1.55839063    0.68082813
 H                  1.74567187   -1.54339063   -1.08917187
 H                  1.58667188   -1.38139063    0.68182813
 H                  1.03367188    0.99760937    1.67582813
 C                  0.82467188    0.96760937   -1.81917188
 H                  2.33267187    0.71860937   -0.33017187
 H                  0.56767188    2.32260938    0.55782813
 H                 -0.25732812    0.80860937   -2.02117188
 H                  1.02267188    2.05860938   -1.92917187
 H                  1.39467188    0.44560937   -2.62117187

 1 2 1.0 4 1.0 7 1.0 8 1.0
 2 3 1.0 9 1.0 10 1.0
 3 5 1.0
 4 6 1.0 11 1.0 12 1.0
 5 6 1.0 13 1.0 16 1.0
 6 14 1.0 15 1.0
 7
 8
 9
 10
 11
 12
 13
 14 17 1.0 18 1.0 19 1.0
 15
 16
 17
 18
 19

