# opt dreiding

4-methylthiane-eq

0 1
 C                 -1.00593750   -0.87100000    0.47803125
 C                 -0.33093750   -1.55000000   -0.72496875
 S                  1.34506250   -0.91200000   -0.81896875
 C                 -0.99193750    0.67200000    0.40903125
 C                  1.31706250    0.88100000   -0.72596875
 C                  0.43706250    1.25700000    0.47703125
 H                 -0.52293750   -1.20500000    1.42803125
 H                 -2.06293750   -1.22600000    0.52303125
 H                 -0.89093750   -1.29600000   -1.65496875
 H                 -0.33693750   -2.65900000   -0.61596875
 H                 -1.45693750    0.98700000   -0.55796875
 C                 -1.84893750    1.25400000    1.54803125
 H                  0.87406250    1.30600000   -1.65596875
 H                  0.37506250    2.37100000    0.52203125
 H                  2.34506250    1.29800000   -0.61796875
 H                  0.92606250    0.93300000    1.42703125
 H                 -1.89293750    2.36700000    1.49703125
 H                 -2.89893750    0.88300000    1.49703125
 H                 -1.43693750    0.97500000    2.54503125

 1 2 1.0 4 1.0 7 1.0 8 1.0
 2 3 1.0 9 1.0 10 1.0
 3 5 1.0
 4 6 1.0 11 1.0 12 1.0
 5 6 1.0 13 1.0 15 1.0
 6 14 1.0 16 1.0
 7
 8
 9
 10
 11
 12 17 1.0 18 1.0 19 1.0
 13
 14
 15
 16
 17
 18
 19

