# opt dreiding

4-methylthiane-ax

0 1
 C                 -1.00100000   -0.87495312    0.79867188
 C                 -0.34000000   -1.55095312   -0.41432813
 S                  1.33100000   -0.90295313   -0.53332812
 C                 -0.98700000    0.66904688    0.77167188
 C                  1.31500000    0.88904688   -0.41532813
 C                  0.44300000    1.25504688    0.79767188
 H                 -0.50100000   -1.22595312    1.73267188
 H                 -2.05800000   -1.22895313    0.86867187
 H                 -0.91500000   -1.32095312   -1.33932812
 H                 -0.33200000   -2.65895313   -0.29832812
 H                 -1.48500000    1.00804688    1.71567187
 C                 -1.83000000    1.24104687   -0.38132813
 H                  0.88800000    1.33804687   -1.34032812
 H                  0.38000000    2.36704687    0.86767187
 H                  2.34700000    1.29304687   -0.30032812
 H                  0.95500000    0.92004688    1.73267188
 H                 -2.87900000    0.86704687   -0.33332812
 H                 -1.87100000    2.35304687   -0.33432812
 H                 -1.42500000    0.96604687   -1.38032812

 1 2 1.0 4 1.0 7 1.0 8 1.0
 2 3 1.0 9 1.0 10 1.0
 3 5 1.0
 4 6 1.0 11 1.0 12 1.0
 5 6 1.0 13 1.0 15 1.0
 6 14 1.0 16 1.0
 7
 8
 9
 10
 11
 12 17 1.0 18 1.0 19 1.0
 13
 14
 15
 16
 17
 18
 19

