# opt dreiding

Me-vinyl-sulfone-g

0 1
 C                  1.86303571   -0.68498214    0.92317857
 C                  1.04803571   -0.71298214   -0.14282143
 S                 -0.50896429    0.07601786   -0.15482143
 C                  0.03603571    1.74701786   -0.13482143
 O                 -0.96696429   -0.42398214   -1.42682143
 O                 -1.00796429   -0.45598214    1.08817857
 H                 -0.85196429    2.41601786   -0.20082143
 H                  0.58103571    1.97301786    0.80917857
 H                  0.70103571    1.94701786   -1.00582143
 H                  2.84203571   -1.18998214    0.89517857
 H                  1.59803571   -0.16498214    1.85817857
 H                  1.39003571   -1.25198214   -1.04282143

 1 2 2.0 10 1.0 11 1.0
 2 3 1.0 12 1.0
 3 4 1.0 5 2.0 6 2.0
 4 7 1.0 8 1.0 9 1.0
 5
 6
 7
 8
 9
 10
 11
 12

