# opt dreiding

Me-vinyl-sulfone-s-trans

0 1
 C                  1.25032143   -1.86555357    0.00000000
 C                  1.14032143   -0.52855357    0.00000000
 S                 -0.40867857    0.27644643    0.00000000
 C                  0.13632143    1.94844643    0.00000000
 O                 -0.87667857   -0.24255357   -1.26000000
 O                 -0.87667857   -0.24255357    1.26000000
 H                 -0.75367857    2.61544643    0.00000000
 H                  0.74132143    2.16044643    0.91100000
 H                  0.74132143    2.16044643   -0.91100000
 H                  2.24032143   -2.34855357    0.00000000
 H                  0.36932143   -2.52955357    0.00000000
 H                  2.06532143    0.07344643    0.00000000

 1 2 2.0 10 1.0 11 1.0
 2 3 1.0 12 1.0
 3 4 1.0 5 2.0 6 2.0
 4 7 1.0 8 1.0 9 1.0
 5
 6
 7
 8
 9
 10
 11
 12

