# opt dreiding

MeEt-sulfone-g

0 1
 C                  1.96734483   -0.12834483   -1.06429310
 C                  1.24134483   -0.60834483    0.19770690
 S                 -0.47065517   -0.08934483    0.18670690
 C                 -0.42165517    1.69165517    0.24270690
 O                 -1.09065517   -0.50434483   -1.05629310
 O                 -1.09265517   -0.56434483    1.40770690
 H                  3.01234483   -0.51734483   -1.07329310
 H                  1.48034483   -0.49134483   -1.99829310
 H                  2.04434483    0.98165517   -1.11429310
 H                  1.25934483   -1.72234483    0.24770690
 H                  1.73334483   -0.20634483    1.11370690
 H                 -1.45965517    2.08365517    0.32570690
 H                  0.16634483    2.02365517    1.12770690
 H                  0.03834483    2.09765517   -0.68429310

 1 2 1.0 7 1.0 8 1.0 9 1.0
 2 3 1.0 10 1.0 11 1.0
 3 4 1.0 5 2.0 6 2.0
 4 12 1.0 13 1.0 14 1.0
 5
 6
 7
 8
 9
 10
 11
 12
 13
 14

