# opt dreiding

methylehtylsulfide-a

0 1
 C                 -1.56538095   -1.55359524   -0.03742857
 C                 -0.10238095   -1.09559524    0.02357143
 S                 -0.03938095    0.70140476   -0.02042857
 C                  1.62261905    1.36740476    0.04557143
 H                 -1.62738095   -2.66659524   -0.01142857
 H                 -2.15538095   -1.17059524    0.82757143
 H                  0.37261905   -1.47559524    0.95757143
 H                 -2.06538095   -1.21859524   -0.97642857
 H                  0.46261905   -1.52259524   -0.83742857
 H                  1.58361905    2.47940476    0.01357143
 H                  2.11961905    1.04540476    0.98757143
 H                  2.21061905    0.99740476   -0.82442857

 1 2 1.0 5 1.0 6 1.0 8 1.0
 2 3 1.0 7 1.0 9 1.0
 3 4 1.0
 4 10 1.0 11 1.0 12 1.0
 5
 6
 7
 8
 9
 10
 11
 12

