# opt dreiding

s-methylthianium-ax

1 1
 C                  0.13263077   -1.71476923   -0.47852308
 C                 -0.81536923   -1.17776923    0.60647692
 S                 -0.79036923    0.59223077    0.52647692
 C                  1.56963077   -1.17576923   -0.33152308
 C                  0.90163077    1.11523077    0.60347692
 C                  1.68163077    0.35523077   -0.48052308
 H                 -0.25836923   -1.46276923   -1.49352308
 H                  0.15063077   -2.82876923   -0.41552308
 H                 -0.45336923   -1.48276923    1.61547692
 H                 -1.86036923   -1.54176923    0.47247692
 H                  2.21463077   -1.65876923   -1.10452308
 H                  1.97863077   -1.48076923    0.66047692
 H                  1.29663077    0.85523077    1.61247692
 H                  2.75663077    0.65223077   -0.41952308
 H                  0.95563077    2.22023077    0.46747692
 C                 -1.74236923    1.30323077   -0.77952308
 H                  1.32963077    0.65823077   -1.49552308
 H                 -1.32536923    0.99023077   -1.76252308
 H                 -2.79736923    0.95823077   -0.69952308
 H                 -1.70836923    2.41323077   -0.70052308

 1 2 1.0 4 1.0 7 1.0 8 1.0
 2 3 1.0 9 1.0 10 1.0
 3 5 1.0 16 1.0
 4 6 1.0 11 1.0 12 1.0
 5 6 1.0 13 1.0 15 1.0
 6 14 1.0 17 1.0
 7
 8
 9
 10
 11
 12
 13
 14
 15
 16 18 1.0 19 1.0 20 1.0
 17
 18
 19
 20

