# opt dreiding

s-methylthianium-eq

1 1
 C                  0.16223077   -1.72860000   -0.85267692
 C                 -0.81776923   -1.19760000    0.20232308
 S                 -0.76276923    0.57140000    0.20332308
 C                  1.59523077   -1.19460000   -0.66267692
 C                  0.91823077    1.12240000    0.19932308
 C                  1.70323077    0.33040000   -0.85567692
 H                 -0.19676923   -1.46560000   -1.87667692
 H                  0.17323077   -2.84360000   -0.79867692
 H                 -0.52276923   -1.54660000    1.21832308
 H                 -1.86176923   -1.52960000   -0.00267692
 H                  2.26623077   -1.69760000   -1.39967692
 H                  1.96723077   -1.47260000    0.35232308
 H                  1.33823077    0.93840000    1.21532308
 H                  2.77623077    0.63340000   -0.80267692
 H                  0.94323077    2.21740000   -0.00667692
 C                 -1.85576923    1.39040000    1.31532308
 H                  1.34823077    0.59940000   -1.87967692
 H                 -1.55476923    1.16640000    2.36332308
 H                 -1.80776923    2.48940000    1.14332308
 H                 -2.89676923    1.03440000    1.14532308

 1 2 1.0 4 1.0 7 1.0 8 1.0
 2 3 1.0 9 1.0 10 1.0
 3 5 1.0 16 1.0
 4 6 1.0 11 1.0 12 1.0
 5 6 1.0 13 1.0 15 1.0
 6 14 1.0 17 1.0
 7
 8
 9
 10
 11
 12
 13
 14
 15
 16 18 1.0 19 1.0 20 1.0
 17
 18
 19
 20

