# opt dreiding

sulfolane-envelope

0 1
 C                 -0.61920313   -1.26035937    0.31832812
 S                 -0.55320313    0.46964063   -0.10267188
 O                 -1.57320313    1.20464063    0.61432812
 O                 -0.49220313    0.62964063   -1.54067188
 C                  1.04979687    0.76964063    0.61532812
 C                  1.79379687   -0.49035937    0.14732812
 C                  0.81879687   -1.67535937   -0.02567188
 H                 -1.40620313   -1.80035937   -0.25767187
 H                 -0.80820313   -1.35035937    1.41432812
 H                  0.94479687    0.77964063    1.72532812
 H                  1.49479687    1.72764063    0.25832812
 H                  2.60179687   -0.74235937    0.87432812
 H                  2.30679687   -0.28135937   -0.82367188
 H                  1.12379687   -2.53935938    0.61132812
 H                  0.85779687   -2.04335937   -1.08067188

 1 2 1.0 7 1.0 8 1.0 9 1.0
 2 3 2.0 4 2.0 5 1.0
 3
 4
 5 6 1.0 10 1.0 11 1.0
 6 7 1.0 12 1.0 13 1.0
 7 14 1.0 15 1.0
 8
 9
 10
 11
 12
 13
 14
 15

