# opt dreiding

thiacyclohexane-twb

0 1
 C                 -1.23453571   -0.61928571    0.64539286
 C                 -0.11153571   -1.56528571    0.19439286
 C                  1.30246429   -1.00628571    0.45839286
 S                 -1.09853571    0.84871429   -0.38660714
 C                  1.46746429    0.51771429    0.28239286
 C                  0.62046429    1.09371429   -0.86160714
 H                 -2.23953571   -1.09028571    0.54739286
 H                 -1.07853571   -0.36628571    1.71939286
 H                 -0.21953571   -2.54628571    0.71939286
 H                 -0.23253571   -1.79428571   -0.89160714
 H                  2.01446429   -1.53428571   -0.21960714
 H                  1.61446429   -1.26928571    1.49839286
 H                  2.54546429    0.74871429    0.10039286
 H                  1.20846429    1.04071429    1.23539286
 H                  0.85746429    0.53671429   -1.79660714
 H                  0.84046429    2.17171429   -1.04060714

 1 2 1.0 4 1.0 7 1.0 8 1.0
 2 3 1.0 9 1.0 10 1.0
 3 5 1.0 11 1.0 12 1.0
 4 6 1.0
 5 6 1.0 13 1.0 14 1.0
 6 15 1.0 16 1.0
 7
 8
 9
 10
 11
 12
 13
 14
 15
 16

