# opt uff

1-3-butadiene-cis

0 1
 C                 -0.71800000   -0.40140000   -0.45560000
 C                  0.69200000   -0.63540000   -0.05360000
 C                 -1.43400000    0.69960000   -0.18660000
 C                  1.45700000    0.22060000    0.63840000
 H                 -1.21400000   -1.20640000   -1.02560000
 H                  1.14300000   -1.59740000   -0.35260000
 H                 -1.02800000    1.55460000    0.37440000
 H                 -2.47900000    0.78560000   -0.52660000
 H                  1.09800000    1.20260000    0.98140000
 H                  2.49800000   -0.03940000    0.89340000

 1 2 1.0 3 2.0 5 1.0
 2 4 2.0 6 1.0
 3 7 1.0 8 1.0
 4 9 1.0 10 1.0
 5
 6
 7
 8
 9
 10

