# opt uff

2-methylpropenoic acid-t

0 1
 C                  0.57626087   -1.65267391   -0.23826087
 C                  0.57526087   -0.31967391   -0.06826087
 C                 -0.62573913    0.30332609    0.06873913
 C                  1.86526087    0.46632609   -0.03026087
 O                 -0.66173913    1.50232609    0.22373913
 O                 -1.79673913   -0.33867391    0.04273913
 H                  1.52326087   -2.20367391   -0.35426087
 H                 -0.34073913   -2.26367391   -0.27226087
 H                  1.88626087    1.22232609   -0.84826087
 H                  1.97226087    0.99332609    0.94473913
 H                  2.76426087   -0.18067391   -0.15626087
 H                 -2.48373913    0.33932609    0.16273913

 1 2 2.0 7 1.0 8 1.0
 2 3 2.0 4 1.0
 3 5 2.0 6 1.5
 4 9 1.0 10 1.0 11 1.0
 5
 6 12 1.0
 7
 8
 9
 10
 11
 12

