# opt uff

but-1-ene-3-one-t

0 1
 C                  1.86510526   -0.18465789    0.00363158
 C                  0.66310526   -0.77965789    0.00063158
 C                 -0.51589474   -0.10465789   -0.00136842
 C                 -0.54889474    1.41534211    0.00063158
 O                 -1.56189474   -0.71765789   -0.00436842
 H                  2.78410526   -0.79365789    0.00563158
 H                  2.00910526    0.90734211    0.00563158
 H                  0.63410526   -1.88365789   -0.00036842
 H                 -1.59889474    1.78634211   -0.00136842
 H                 -0.05889474    1.82234211    0.91463158
 H                 -0.05489474    1.82434211   -0.91036842

 1 2 2.0 6 1.0 7 1.0
 2 3 2.0 8 1.0
 3 4 1.0 5 2.0
 4 9 1.0 10 1.0 11 1.0
 5
 6
 7
 8
 9
 10
 11

