# opt uff

Dioxaphosphoriane-H-eq

0 1
 O                 -1.17900000   -0.80416250   -0.72523750
 C                 -1.12200000    0.59783750   -0.59623750
 C                 -0.39000000    1.03583750    0.69276250
 P                  0.41700000   -1.44416250   -0.74223750
 C                  1.09000000    0.59283750    0.65776250
 O                  1.22500000   -0.81016250    0.63676250
 H                 -0.66700000    1.03483750   -1.51723750
 H                 -2.18400000    0.93283750   -0.56723750
 C                 -0.43100000    2.57783750    0.77176250
 C                 -1.09700000    0.46283750    1.93776250
 O                  1.18500000   -1.00216250   -2.09523750
 H                  1.64900000    1.02883750   -0.20523750
 H                  1.61200000    0.92383750    1.58476250
 H                 -1.47800000    2.95583750    0.80076250
 H                  0.06900000    3.04283750   -0.10823750
 H                  0.08500000    2.95183750    1.68576250
 H                 -1.10200000   -0.65116250    1.94176250
 H                 -2.15800000    0.79783750    1.98976250
 H                 -0.59500000    0.79383750    2.87476250
 H                  0.36600000   -2.82016250   -0.65923750

 1 2 1.0 4 1.0
 2 3 1.0 7 1.0 8 1.0
 3 5 1.0 9 1.0 10 1.0
 4 6 1.0 11 1.0 20 1.0
 5 6 1.0 12 1.0 13 1.0
 6
 7
 8
 9 14 1.0 15 1.0 16 1.0
 10 17 1.0 18 1.0 19 1.0
 11
 12
 13
 14
 15
 16
 17
 18
 19
 20

