# opt uff

DNE-g

0 1
 N                  1.11262903   -0.90046774    0.56612903
 C                  1.07262903    0.60353226    0.44512903
 N                 -1.20537097    0.66553226   -0.68787097
 C                 -0.37437097    1.16253226    0.47012903
 H                  1.64162903    1.03553226    1.30312903
 H                  1.59562903    0.92053226   -0.48787097
 H                 -0.33137097    2.27653226    0.41212903
 H                 -0.87437097    0.90253226    1.43312903
 O                 -2.40137097    0.92253226   -0.64387097
 O                 -0.58937097    0.18053226   -1.62387097
 O                  2.20062903   -1.42946774    0.38112903
 O                  0.09362903   -1.43446774    0.97412903

 1 2 1.0 11 2.0 12 2.0
 2 4 1.0 5 1.0 6 1.0
 3 4 1.0 9 1.5 10 2.0
 4 7 1.0 8 1.0
 5
 6
 7
 8
 9
 10
 11
 12

