# opt uff

propenoic acid-t

0 1
 C                 -1.87481579   -0.17205263    0.00000000
 C                 -0.66781579   -0.75705263    0.00000000
 C                  0.47718421   -0.02405263    0.00000000
 O                  1.54318421   -0.59905263    0.00000000
 O                  0.50318421    1.32894737    0.00000000
 H                 -2.79181579   -0.78405263    0.00000000
 H                 -2.01081579    0.92194737    0.00000000
 H                  1.43618421    1.60094737    0.00000000
 H                 -0.61181579   -1.85905263    0.00000000

 1 2 2.0 6 1.0 7 1.0
 2 3 2.0 9 1.0
 3 4 2.0 5 1.0
 4
 5 8 1.0
 6
 7
 8
 9

