# opt uff

2,3-dimethylbutane-g

0 1
 C                  1.33806000   -0.21778000    1.51716000
 C                  0.60706000   -0.57578000    0.21016000
 C                 -0.84094000   -0.02978000    0.18716000
 C                 -0.93094000    1.50322000    0.10416000
 C                  1.45806000   -0.14378000   -0.99584000
 C                 -1.67894000   -0.65978000   -0.94184000
 H                  2.32906000   -0.72478000    1.57316000
 H                  1.52506000    0.87622000    1.60016000
 H                  0.75506000   -0.53578000    2.41216000
 H                  0.53606000   -1.69178000    0.18316000
 H                 -1.32394000   -0.33878000    1.14816000
 H                 -1.98994000    1.84522000    0.17616000
 H                 -0.37594000    1.99922000    0.93216000
 H                 -0.52994000    1.88822000   -0.86084000
 H                  0.98606000   -0.42578000   -1.96284000
 H                  1.63206000    0.95622000   -1.00384000
 H                  2.46006000   -0.63178000   -0.97084000
 H                 -2.74794000   -0.35578000   -0.86584000
 H                 -1.31994000   -0.34578000   -1.94784000
 H                 -1.64994000   -1.77278000   -0.89884000

 1 2 1.0 7 1.0 8 1.0 9 1.0
 2 3 1.0 5 1.0 10 1.0
 3 4 1.0 6 1.0 11 1.0
 4 12 1.0 13 1.0 14 1.0
 5 15 1.0 16 1.0 17 1.0
 6 18 1.0 19 1.0 20 1.0
 7
 8
 9
 10
 11
 12
 13
 14
 15
 16
 17
 18
 19
 20

