# opt uff

cyclohexane-ch

0 1
 C                 -1.08535417   -0.76591667   -0.65131250
 C                 -1.10435417    0.76908333   -0.61531250
 C                 -0.35535417    1.29708333    0.61668750
 C                  0.35564583   -1.29691667   -0.61731250
 C                  1.08564583    0.76608333    0.65168750
 C                  1.10364583   -0.76891667    0.61568750
 H                 -1.64935417   -1.16591667    0.22468750
 H                 -1.60335417   -1.13191667   -1.57031250
 H                 -0.62535417    1.16808333   -1.54131250
 H                 -0.34935417    2.41308333    0.60868750
 H                  0.34964583   -2.41391667   -0.60931250
 H                  1.64964583    1.16508333   -0.22431250
 H                  2.15864583   -1.13691667    0.60668750
 H                  0.62464583   -1.16891667    1.54068750
 H                 -0.89135417    0.97808333    1.54268750
 H                 -2.15835417    1.13608333   -0.60731250
 H                  1.60364583    1.13208333    1.57068750
 H                  0.89164583   -0.97791667   -1.54231250

 1 2 1.0 4 1.0 7 1.0 8 1.0
 2 3 1.0 9 1.0 16 1.0
 3 5 1.0 10 1.0 15 1.0
 4 6 1.0 11 1.0 18 1.0
 5 6 1.0 12 1.0 17 1.0
 6 13 1.0 14 1.0
 7
 8
 9
 10
 11
 12
 13
 14
 15
 16
 17
 18

