$RunGaus
%mem=16000Mb
%nproc=8
# mp2/cc-pVTZ

Et_P_Me2_a_single_point

0 1 
 c
 p   1 pc2     
 c    2 cp3         1 cpc3      
 c    2 cp4         3 cpc4          1 dih4   
 c    4 cc5         2 ccp5          3 dih5   
 h    4 hc6         2 hcp6          1 dih6   
 h    4 hc7         2 hcp7          1 dih7   
 h    5 hc8         4 hcc8          2 dih8   
 h    5 hc9         4 hcc9          2 dih9   
 h    5 hc10        4 hcc10         2 dih10  
 h    1 hc11        2 hcp11         4 dih11  
 h    1 hc12        2 hcp12         4 dih12  
 h    1 hc13        2 hcp13         4 dih13  
 h    3 hc14        2 hcp14         4 dih14  
 h    3 hc15        2 hcp15         4 dih15  
 h    3 hc16        2 hcp16         4 dih16  
 
pc2         1.867625
cp3         1.867624
cpc3         99.652
cp4         1.880202
cpc4        101.688
dih4       -104.183
cc5         1.533860
ccp5        119.574
dih5         51.286
hc6         1.097800
hcp6        105.393
dih6         73.086
hc7         1.097800
hcp7        105.393
dih7       -175.654
hc8         1.096492
hcc8        110.507
dih8       -179.998
hc9         1.094870
hcc9        111.912
dih9        -60.554
hc10        1.094871
hcc10       111.912
dih10        60.558
hc11        1.094758
hcp11       108.694
dih11       176.477
hc12        1.095003
hcp12       109.531
dih12       -66.364
hc13        1.095551
hcp13       113.694
dih13        55.642
hc14        1.094758
hcp14       108.693
dih14      -176.465
hc15        1.095550
hcp15       113.694
dih15       -55.630
hc16        1.095003
hcp16       109.531
dih16        66.376
 
 
 

