$RunGaus
%mem=16000Mb
%nproc=8
# mp2/cc-pVTZ

Et_P_Me2_g_single_point

0 1 
 c
 p   1 pc2     
 c    2 cp3         1 cpc3      
 c    2 cp4         3 cpc4          1 dih4   
 c    4 cc5         2 ccp5          3 dih5   
 h    4 hc6         2 hcp6          1 dih6   
 h    4 hc7         2 hcp7          1 dih7   
 h    5 hc8         4 hcc8          2 dih8   
 h    5 hc9         4 hcc9          2 dih9   
 h    5 hc10        4 hcc10         2 dih10  
 h    1 hc11        2 hcp11         4 dih11  
 h    1 hc12        2 hcp12         4 dih12  
 h    1 hc13        2 hcp13         4 dih13  
 h    3 hc14        2 hcp14         4 dih14  
 h    3 hc15        2 hcp15         4 dih15  
 h    3 hc16        2 hcp16         4 dih16  
 
pc2         1.867797
cp3         1.866971
cpc3         99.138
cp4         1.876026
cpc4         99.081
dih4       -101.971
cc5         1.534819
ccp5        113.496
dih5        176.706
hc6         1.097501
hcp6        106.340
dih6       -163.827
hc7         1.099140
hcp7        109.792
dih7        -48.574
hc8         1.095819
hcc8        110.934
dih8        176.570
hc9         1.095511
hcc9        111.676
dih9        -63.768
hc10        1.095400
hcc10       111.253
dih10        56.570
hc11        1.094797
hcp11       109.309
dih11       170.532
hc12        1.094190
hcp12       109.982
dih12       -71.748
hc13        1.097248
hcp13       112.444
dih13        49.724
hc14        1.094702
hcp14       109.470
dih14      -172.111
hc15        1.097123
hcp15       112.598
dih15       -51.122
hc16        1.094749
hcp16       109.613
dih16        70.095
 
 
 

