$RunGaus
%mem=16000Mb
%nproc=8
# mp2/cc-pVTZ

ethylphosphine_a_single_point

0 1 
 c
 c   1 cc2     
 p    1 pc3         2 pcc3      
 h    3 hp4         1 hpc4          2 dih4   
 h    3 hp5         1 hpc5          2 dih5   
 h    1 hc6         3 hcp6          4 dih6   
 h    1 hc7         3 hcp7          4 dih7   
 h    2 hc8         1 hcc8          3 dih8   
 h    2 hc9         1 hcc9          3 dih9   
 h    2 hc10        1 hcc10         3 dih10  
 
cc2         1.531926
pc3         1.879751
pcc3        116.987
hp4         1.426081
hpc4         97.289
dih4        -47.217
hp5         1.426083
hpc5         97.291
dih5         47.213
hc6         1.097147
hcp6        106.162
dih6         76.633
hc7         1.097158
hcp7        106.147
dih7       -171.054
hc8         1.096994
hcc8        111.077
dih8       -179.993
hc9         1.095419
hcc9        111.249
dih9        -59.939
hc10        1.095418
hcc10       111.250
dih10        59.953
 
 
 

