$RunGaus
%mem=16000Mb
%nproc=8
# mp2/cc-pVTZ

P_Me_phosphorinane_ax_single_point

0 1 
 c
 p   1 pc2     
 c    2 cp3         1 cpc3      
 c    3 cc4         2 ccp4          1 dih4   
 c    4 cc5         3 ccc5          2 dih5   
 c    5 cc6         4 ccc6          3 dih6   
 c    6 cc7         5 ccc7          4 dih7   
 h    7 hc8         6 hcc8          5 dih8   
 h    7 hc9         6 hcc9          5 dih9   
 h    6 hc10        7 hcc10         2 dih10  
 h    6 hc11        7 hcc11         2 dih11  
 h    5 hc12        6 hcc12         7 dih12  
 h    5 hc13        6 hcc13         7 dih13  
 h    4 hc14        5 hcc14         6 dih14  
 h    4 hc15        5 hcc15         6 dih15  
 h    3 hc16        2 hcp16         7 dih16  
 h    3 hc17        2 hcp17         7 dih17  
 h    1 hc18        2 hcp18         7 dih18  
 h    1 hc19        2 hcp19         7 dih19  
 h    1 hc20        2 hcp20         7 dih20  
 
pc2         1.870814
cp3         1.879180
cpc3        101.336
cc4         1.537745
ccp4        116.789
dih4         61.721
cc5         1.537238
ccc5        113.273
dih5         54.939
cc6         1.537238
ccc6        113.352
dih6        -61.814
cc7         1.537745
ccc7        113.274
dih7         61.814
hc8         1.097217
hcc8        110.838
dih8       -178.149
hc9         1.098564
hcc9        109.604
dih9         65.368
hc10        1.098603
hcc10       108.954
dih10      -176.903
hc11        1.098339
hcc11       109.913
dih11        67.442
hc12        1.100505
hcc12       109.193
dih12       -60.154
hc13        1.097307
hcc13       109.290
dih13      -176.021
hc14        1.098603
hcc14       109.366
dih14       176.453
hc15        1.098339
hcc15       109.147
dih15        60.993
hc16        1.098566
hcp16       105.851
dih16        80.502
hc17        1.097216
hcp17       107.254
dih17      -166.815
hc18        1.094198
hcp18       114.896
dih18        50.690
hc19        1.095022
hcp19       108.666
dih19       172.426
hc20        1.095022
hcp20       108.665
dih20       -71.046
 
 
 

