$RunGaus
%mem=16000Mb
%nproc=8
# mp2/cc-pVTZ

P_Me_phosphorinane_eq_single_point

0 1 
 c
 p   1 pc2     
 c    2 cp3         1 cpc3      
 c    3 cc4         2 ccp4          1 dih4   
 c    4 cc5         3 ccc5          2 dih5   
 c    5 cc6         4 ccc6          3 dih6   
 c    6 cc7         5 ccc7          4 dih7   
 h    7 hc8         6 hcc8          5 dih8   
 h    7 hc9         6 hcc9          5 dih9   
 h    6 hc10        7 hcc10         2 dih10  
 h    6 hc11        7 hcc11         2 dih11  
 h    5 hc12        6 hcc12         7 dih12  
 h    5 hc13        6 hcc13         7 dih13  
 h    4 hc14        5 hcc14         6 dih14  
 h    4 hc15        5 hcc15         6 dih15  
 h    3 hc16        2 hcp16         7 dih16  
 h    3 hc17        2 hcp17         7 dih17  
 h    1 hc18        2 hcp18         7 dih18  
 h    1 hc19        2 hcp19         7 dih19  
 h    1 hc20        2 hcp20         7 dih20  
 
pc2         1.865891
cp3         1.874950
cpc3        100.661
cc4         1.540361
ccp4        110.791
dih4       -159.635
cc5         1.539172
ccc5        113.074
dih5         62.251
cc6         1.539172
ccc6        113.866
dih6        -59.047
cc7         1.540360
ccc7        113.074
dih7         59.046
hc8         1.096347
hcc8        110.309
dih8        177.530
hc9         1.099922
hcc9        109.830
dih9         59.508
hc10        1.097775
hcc10       109.257
dih10       175.838
hc11        1.098971
hcc11       109.420
dih11        59.845
hc12        1.100066
hcc12       108.940
dih12       -62.762
hc13        1.097271
hcc13       109.236
dih13      -178.544
hc14        1.097775
hcc14       109.260
dih14       179.044
hc15        1.098971
hcc15       109.312
dih15        63.111
hc16        1.099922
hcp16       110.027
dih16        64.168
hc17        1.096346
hcp17       108.547
dih17      -178.739
hc18        1.096733
hcp18       112.600
dih18       -49.358
hc19        1.094929
hcp19       109.511
dih19        71.788
hc20        1.094929
hcp20       109.511
dih20      -170.504
 
 
 

