$RunGaus
%mem=16000Mb
%nproc=8
# mp2/cc-pVTZ

trimethylphosphate_C1_single_point

0 1 
 c
 o   1 oc2     
 p    2 po3         1 poc3      
 o    3 op4         2 opo4          1 dih4   
 c    4 co5         3 cop5          2 dih5   
 o    3 op6         2 opo6          1 dih6   
 o    3 op7         2 opo7          1 dih7   
 c    7 co8         3 cop8          2 dih8   
 h    1 hc9         2 hco9          3 dih9   
 h    1 hc10        2 hco10         3 dih10  
 h    1 hc11        2 hco11         3 dih11  
 h    8 hc12        7 hco12         3 dih12  
 h    8 hc13        7 hco13         3 dih13  
 h    8 hc14        7 hco14         3 dih14  
 h    5 hc15        4 hco15         3 dih15  
 h    5 hc16        4 hco16         3 dih16  
 h    5 hc17        4 hco17         3 dih17  
 
oc2         1.442730
po3         1.601588
poc3        122.062
op4         1.621788
opo4        106.485
dih4         55.075
co5         1.444200
cop5        119.364
dih5         92.157
op6         1.479308
opo6        113.440
dih6       -177.939
op7         1.607559
opo7        101.632
dih7        -50.125
co8         1.442978
cop8        119.748
dih8       -176.211
hc9         1.090414
hco9        105.902
dih9       -175.428
hc10        1.093842
hco10       110.586
dih10       -56.323
hc11        1.092723
hco11       110.155
dih11        65.517
hc12        1.090359
hco12       106.050
dih12       174.411
hc13        1.093884
hco13       110.176
dih13       -66.704
hc14        1.093087
hco14       110.332
dih14        55.284
hc15        1.090783
hco15       106.094
dih15       167.821
hc16        1.094547
hco16       110.385
dih16       -73.415
hc17        1.092376
hco17       110.425
dih17        48.115
 
 
 

