# opt dreiding

1,2-difluoroethane-g

0 1
 C                  0.43685294   -0.76994118   -0.26820588
 C                  0.44285294    0.77005882   -0.25920588
 F                 -0.08814706   -1.25194118    0.93179412
 F                 -0.86214706    1.25205882   -0.36220588
 H                 -0.15814706   -1.15294118   -1.12920588
 H                  1.47985294   -1.14994118   -0.37820588
 H                  0.92085294    1.15205882    0.67179412
 H                  1.03185294    1.14905882   -1.12620588

 1 2 1.0 3 1.0 5 1.0 6 1.0
 2 4 1.0 7 1.0 8 1.0
 3
 4
 5
 6
 7
 8

