# opt dreiding

1,3-dichloropropane-g+,g+

0 1
 C                  1.10386207   -0.80744828    0.00239655
 C                  1.02186207    0.72655172    0.00839655
 C                 -0.40113793    1.30755172    0.00339655
 Cl                -1.28613793    0.90255172   -1.50960345
 Cl                 0.41486207   -1.52244828    1.50239655
 H                  0.55286207   -1.25644828   -0.85560345
 H                  2.16486207   -1.14644828   -0.04360345
 H                  1.56286207    1.11355172    0.90539655
 H                  1.57386207    1.11955172   -0.87860345
 H                 -1.01513793    0.92755172    0.85139655
 H                 -0.37513793    2.42055172    0.05839655

 1 2 1.0 5 1.0 6 1.0 7 1.0
 2 3 1.0 8 1.0 9 1.0
 3 4 1.0 10 1.0 11 1.0
 4
 5
 6
 7
 8
 9
 10
 11

