# opt dreiding

chloropropane-a

0 1
 C                  0.17747619   -0.48638095   -0.29850000
 C                  0.17547619    1.04661905   -0.30250000
 Cl                -0.67452381   -1.13438095    1.14850000
 H                 -0.35052381   -0.89538095   -1.19050000
 H                  1.21447619   -0.89238095   -0.26650000
 H                 -0.87452381    1.42661905   -0.29650000
 H                  0.67747619    1.43061905    0.61950000
 C                  0.90147619    1.60161905   -1.53550000
 H                  0.89847619    2.71661905   -1.53450000
 H                  1.96347619    1.26561905   -1.56050000
 H                  0.41147619    1.26161905   -2.47650000

 1 2 1.0 3 1.0 4 1.0 5 1.0
 2 6 1.0 7 1.0 8 1.0
 3
 4
 5
 6
 7
 8 9 1.0 10 1.0 11 1.0
 9
 10
 11

