# opt dreiding

fluoropropane-g

0 1
 C                 -0.50997059   -0.79338235    0.33379412
 C                 -0.48897059    0.74161765    0.30779412
 F                  0.79002941   -1.29438235    0.37479412
 H                 -1.06797059   -1.15238235    1.22879412
 H                 -1.03197059   -1.18638235   -0.56920588
 H                 -1.53697059    1.12661765    0.33479412
 H                  0.02602941    1.11961765    1.22279412
 C                  0.21602941    1.29061765   -0.94020588
 H                  0.20802941    2.40461765   -0.94520588
 H                  1.27902941    0.96061765   -0.98220588
 H                 -0.28897059    0.94361765   -1.87120588

 1 2 1.0 3 1.0 4 1.0 5 1.0
 2 6 1.0 7 1.0 8 1.0
 3
 4
 5
 6
 7
 8 9 1.0 10 1.0 11 1.0
 9
 10
 11

