$RunGaus
%mem=8000Mb
%nproc=4
# mp2/cc-pVTZ

1_Butene_cis_single_point

0 1 
 c
 c   1 cc2     
 c    2 cc3         1 ccc3      
 c    3 cc4         2 ccc4          1 dih4   
 h    2 hc5         3 hcc5          4 dih5   
 h    1 hc6         2 hcc6          3 dih6   
 h    1 hc7         2 hcc7          3 dih7   
 h    4 hc8         3 hcc8          2 dih8   
 h    4 hc9         3 hcc9          2 dih9   
 h    4 hc10        3 hcc10         2 dih10  
 h    3 hc11        2 hcc11         1 dih11  
 h    3 hc12        2 hcc12         1 dih12  
 
cc2         1.337032
cc3         1.508133
ccc3        126.917
cc4         1.530568
ccc4        116.095
dih4          0.006
hc5         1.091043
hcc5        114.815
dih5       -179.991
hc6         1.086098
hcc6        121.084
dih6       -179.997
hc7         1.086374
hcc7        122.409
dih7         -0.002
hc8         1.094747
hcc8        110.527
dih8        179.999
hc9         1.095461
hcc9        111.418
dih9        -60.249
hc10        1.095460
hcc10       111.418
dih10        60.245
hc11        1.100258
hcc11       108.141
dih11       123.510
hc12        1.100257
hcc12       108.139
dih12      -123.495
 
 
 

