$RunGaus
%mem=8000Mb
%nproc=4
# mp2/cc-pVTZ

1_Butene_skew_single_point

0 1 
 c
 c   1 cc2     
 c    2 cc3         1 ccc3      
 c    3 cc4         2 ccc4          1 dih4   
 h    2 hc5         3 hcc5          4 dih5   
 h    1 hc6         2 hcc6          3 dih6   
 h    1 hc7         2 hcc7          3 dih7   
 h    4 hc8         3 hcc8          2 dih8   
 h    4 hc9         3 hcc9          2 dih9   
 h    4 hc10        3 hcc10         2 dih10  
 h    3 hc11        2 hcc11         1 dih11  
 h    3 hc12        2 hcc12         1 dih12  
 
cc2         1.336621
cc3         1.504883
ccc3        125.461
cc4         1.539045
ccc4        112.868
dih4       -120.131
hc5         1.091874
hcc5        115.758
dih5         59.280
hc6         1.086266
hcc6        121.711
dih6        179.710
hc7         1.088184
hcc7        121.552
dih7         -0.450
hc8         1.095350
hcc8        110.973
dih8       -177.899
hc9         1.096238
hcc9        111.167
dih9        -58.017
hc10        1.095145
hcc10       110.970
dih10        61.817
hc11        1.096943
hcc11       109.529
dih11         2.694
hc12        1.099723
hcc12       109.023
dih12       119.002
 
 
 

