$RunGaus
%mem=8000Mb
%nproc=4
# mp2/cc-pVTZ

2_3_dimethyl_butane_g_single_pointt

0 1 
 c
 c   1 cc2     
 c    2 cc3         1 ccc3      
 c    2 cc4         3 ccc4          1 dih4   
 c    4 cc5         2 ccc5          3 dih5   
 c    4 cc6         2 ccc6          1 dih6   
 h    1 hc7         2 hcc7          4 dih7   
 h    1 hc8         2 hcc8          4 dih8   
 h    1 hc9         2 hcc9          4 dih9   
 h    2 hc10        4 hcc10         6 dih10  
 h    4 hc11        2 hcc11         1 dih11  
 h    6 hc12        4 hcc12         2 dih12  
 h    6 hc13        4 hcc13         2 dih13  
 h    6 hc14        4 hcc14         2 dih14  
 h    3 hc15        2 hcc15         1 dih15  
 h    3 hc16        2 hcc16         1 dih16  
 h    3 hc17        2 hcc17         1 dih17  
 h    5 hc18        4 hcc18         2 dih18  
 h    5 hc19        4 hcc19         2 dih19  
 h    5 hc20        4 hcc20         2 dih20  
 
cc2         1.538010
cc3         1.538581
ccc3        110.400
cc4         1.555787
ccc4        114.017
dih4        127.196
cc5         1.538014
ccc5        112.068
dih5         67.442
cc6         1.538576
ccc6        114.018
dih6         67.442
hc7         1.095958
hcc7        110.802
dih7        172.665
hc8         1.096144
hcc8        111.683
dih8        -67.808
hc9         1.096315
hcc9        111.359
dih9         52.770
hc10        1.100677
hcc10       105.785
dih10      -176.395
hc11        1.100678
hcc11       105.785
dih11       -50.066
hc12        1.095940
hcc12       110.364
dih12      -174.082
hc13        1.094874
hcc13       112.247
dih13       -54.353
hc14        1.096160
hcc14       111.546
dih14        66.807
hc15        1.094875
hcc15       112.246
dih15       178.454
hc16        1.096160
hcc16       111.546
dih16       -60.386
hc17        1.095939
hcc17       110.364
dih17        58.725
hc18        1.095959
hcc18       110.801
dih18       172.659
hc19        1.096142
hcc19       111.683
dih19       -67.814
hc20        1.096312
hcc20       111.359
dih20        52.764
 
 
 

