$RunGaus
%mem=8000Mb
%nproc=4
# mp2/cc-pVTZ

Butane_a_single_point

0 1 
 c
 c   1 cc2     
 c    2 cc3         1 ccc3      
 c    3 cc4         2 ccc4          1 dih4   
 h    2 hc5         3 hcc5          4 dih5   
 h    2 hc6         3 hcc6          4 dih6   
 h    3 hc7         2 hcc7          1 dih7   
 h    3 hc8         2 hcc8          1 dih8   
 h    1 hc9         2 hcc9          3 dih9   
 h    1 hc10        2 hcc10         3 dih10  
 h    1 hc11        2 hcc11         3 dih11  
 h    4 hc12        3 hcc12         2 dih12  
 h    4 hc13        3 hcc13         2 dih13  
 h    4 hc14        3 hcc14         2 dih14  
 
cc2         1.532629
cc3         1.534347
ccc3        113.339
cc4         1.532643
ccc4        113.337
dih4       -179.999
hc5         1.098944
hcc5        109.139
dih5        -57.751
hc6         1.098942
hcc6        109.140
dih6         57.754
hc7         1.098940
hcc7        109.141
dih7        -57.755
hc8         1.098938
hcc8        109.141
dih8         57.757
hc9         1.095325
hcc9        111.459
dih9       -179.993
hc10        1.096527
hcc10       111.194
dih10       -59.899
hc11        1.096513
hcc11       111.195
dih11        59.901
hc12        1.095324
hcc12       111.459
dih12      -180.000
hc13        1.096522
hcc13       111.197
dih13       -59.899
hc14        1.096527
hcc14       111.195
dih14        59.900
 
 
 

