$RunGaus
%mem=8000Mb
%nproc=4
# mp2/cc-pVTZ

Butane_g_single_point

0 1 
 c
 c   1 cc2     
 c    2 cc3         1 ccc3      
 c    3 cc4         2 ccc4          1 dih4   
 h    2 hc5         3 hcc5          4 dih5   
 h    2 hc6         3 hcc6          4 dih6   
 h    3 hc7         2 hcc7          1 dih7   
 h    3 hc8         2 hcc8          1 dih8   
 h    1 hc9         2 hcc9          3 dih9   
 h    1 hc10        2 hcc10         3 dih10  
 h    1 hc11        2 hcc11         3 dih11  
 h    4 hc12        3 hcc12         2 dih12  
 h    4 hc13        3 hcc13         2 dih13  
 h    4 hc14        3 hcc14         2 dih14  
 
cc2         1.534362
cc3         1.538586
ccc3        114.457
cc4         1.534360
ccc4        114.457
dih4        -65.693
hc5         1.099360
hcc5        109.048
dih5         57.210
hc6         1.098068
hcc6        108.654
dih6        172.401
hc7         1.099363
hcc7        109.049
dih7         57.211
hc8         1.098071
hcc8        108.654
dih8        172.400
hc9         1.095567
hcc9        111.079
dih9       -177.283
hc10        1.097030
hcc10       111.011
dih10       -57.587
hc11        1.095242
hcc11       111.955
dih11        62.695
hc12        1.095565
hcc12       111.079
dih12      -177.283
hc13        1.097033
hcc13       111.011
dih13       -57.588
hc14        1.095241
hcc14       111.955
dih14        62.693
 
 
 

