$RunGaus
%mem=8000Mb
%nproc=4
# mp2/cc-pVTZ

cyclohexane_ch_single_point

0 1 
 c
 c   1 cc2     
 c    2 cc3         1 ccc3      
 c    3 cc4         2 ccc4          1 dih4   
 c    4 cc5         3 ccc5          2 dih5   
 c    5 cc6         4 ccc6          3 dih6   
 h    3 hc7         4 hcc7          5 dih7   
 h    3 hc8         4 hcc8          5 dih8   
 h    4 hc9         3 hcc9          2 dih9   
 h    5 hc10        4 hcc10         3 dih10  
 h    2 hc11        3 hcc11         4 dih11  
 h    6 hc12        5 hcc12         4 dih12  
 h    1 hc13        2 hcc13         3 dih13  
 h    1 hc14        2 hcc14         3 dih14  
 h    5 hc15        4 hcc15         3 dih15  
 h    4 hc16        3 hcc16         2 dih16  
 h    6 hc17        5 hcc17         4 dih17  
 h    2 hc18        3 hcc18         4 dih18  
 
cc2         1.537560
cc3         1.538042
ccc3        111.575
cc4         1.537779
ccc4        111.578
dih4         54.440
cc5         1.537554
ccc5        111.573
dih5        -54.437
cc6         1.538051
ccc6        111.577
dih6         54.433
hc7         1.100205
hcc7        109.099
dih7         66.211
hc8         1.097273
hcc8        110.202
dih8       -177.248
hc9         1.100181
hcc9        109.123
dih9         66.215
hc10        1.097264
hcc10       110.214
dih10       177.190
hc11        1.097263
hcc11       110.190
dih11       177.213
hc12        1.100205
hcc12       109.122
dih12        66.197
hc13        1.097227
hcc13       110.185
dih13      -177.214
hc14        1.100186
hcc14       109.116
dih14        66.218
hc15        1.100218
hcc15       109.139
dih15       -66.240
hc16        1.097233
hcc16       110.221
dih16      -177.193
hc17        1.097276
hcc17       110.237
dih17      -177.229
hc18        1.100222
hcc18       109.123
dih18       -66.239
 
 
 

