$RunGaus
%mem=8000Mb
%nproc=4
# mp2/cc-pVTZ

cyclohexene_halfchair_single_point

0 1 
 c
 c   1 cc2     
 c    2 cc3         1 ccc3      
 c    3 cc4         2 ccc4          1 dih4   
 c    4 cc5         3 ccc5          2 dih5   
 c    5 cc6         4 ccc6          3 dih6   
 h    4 hc7         3 hcc7          2 dih7   
 h    3 hc8         4 hcc8          5 dih8   
 h    2 hc9         3 hcc9          4 dih9   
 h    2 hc10        3 hcc10         4 dih10  
 h    5 hc11        4 hcc11         3 dih11  
 h    5 hc12        4 hcc12         3 dih12  
 h    6 hc13        5 hcc13         4 dih13  
 h    6 hc14        5 hcc14         4 dih14  
 h    1 hc15        2 hcc15         3 dih15  
 h    1 hc16        2 hcc16         3 dih16  
 
cc2         1.537842
cc3         1.510422
ccc3        112.076
cc4         1.339909
ccc4        123.507
dih4         13.903
cc5         1.510419
ccc5        123.507
dih5          1.553
cc6         1.537839
ccc6        112.075
dih6         13.908
hc7         1.089218
hcc7        119.336
dih7       -178.599
hc8         1.089214
hcc8        119.336
dih8       -178.596
hc9         1.101384
hcc9        109.306
dih9       -108.345
hc10        1.098195
hcc10       109.603
dih10       136.548
hc11        1.101386
hcc11       109.304
dih11      -108.336
hc12        1.098190
hcc12       109.606
dih12       136.555
hc13        1.096505
hcc13       110.162
dih13      -166.998
hc14        1.098842
hcc14       109.152
dih14        76.124
hc15        1.098845
hcc15       109.152
dih15        76.129
hc16        1.096499
hcc16       110.162
dih16      -166.991
 
 
 

