$RunGaus
%mem=8000Mb
%nproc=4
# mp2/cc-pVTZ

cyclohexane_twb_A_single_point

0 1 
 c
 c   1 cc2     
 c    2 cc3         1 ccc3      
 c    3 cc4         2 ccc4          1 dih4   
 c    4 cc5         3 ccc5          2 dih5   
 c    5 cc6         4 ccc6          3 dih6   
 h    3 hc7         4 hcc7          5 dih7   
 h    3 hc8         4 hcc8          5 dih8   
 h    4 hc9         3 hcc9          2 dih9   
 h    5 hc10        4 hcc10         3 dih10  
 h    2 hc11        3 hcc11         4 dih11  
 h    6 hc12        5 hcc12         4 dih12  
 h    1 hc13        2 hcc13         3 dih13  
 h    1 hc14        2 hcc14         3 dih14  
 h    5 hc15        4 hcc15         3 dih15  
 h    4 hc16        3 hcc16         2 dih16  
 h    6 hc17        5 hcc17         4 dih17  
 h    2 hc18        3 hcc18         4 dih18  
 
cc2         1.549146
cc3         1.535399
ccc3        111.149
cc4         1.549133
ccc4        111.148
dih4        -63.480
cc5         1.549160
ccc5        112.310
dih5         30.604
cc6         1.535391
ccc6        111.148
dih6         30.596
hc7         1.098484
hcc7        109.868
dih7        -89.832
hc8         1.096318
hcc8        110.121
dih8        153.683
hc9         1.097231
hcc9        109.787
dih9        -91.201
hc10        1.096319
hcc10       110.120
dih10       153.675
hc11        1.096316
hcc11       110.723
dih11       173.787
hc12        1.098480
hcc12       108.768
dih12        57.602
hc13        1.097230
hcc13       109.789
dih13       -91.212
hc14        1.097232
hcc14       109.286
dih14       152.684
hc15        1.098481
hcc15       109.868
dih15       -89.840
hc16        1.097231
hcc16       109.286
dih16       152.696
hc17        1.096318
hcc17       110.725
dih17       173.788
hc18        1.098487
hcc18       108.767
dih18        57.605
 
 
 

