$RunGaus
%mem=8000Mb
%nproc=4
# mp2/cc-pVTZ

cyclooctane_cc_single_point

0 1 
 c
 c   1 cc2     
 c    2 cc3         1 ccc3      
 c    3 cc4         2 ccc4          1 dih4   
 c    4 cc5         3 ccc5          2 dih5   
 c    5 cc6         4 ccc6          3 dih6   
 c    6 cc7         5 ccc7          4 dih7   
 c    7 cc8         6 ccc8          5 dih8   
 h    1 hc9         8 hcc9          7 dih9   
 h    1 hc10        8 hcc10         7 dih10  
 h    8 hc11        1 hcc11         2 dih11  
 h    8 hc12        1 hcc12         2 dih12  
 h    2 hc13        1 hcc13         8 dih13  
 h    2 hc14        1 hcc14         8 dih14  
 h    7 hc15        8 hcc15         1 dih15  
 h    7 hc16        8 hcc16         1 dih16  
 h    3 hc17        2 hcc17         1 dih17  
 h    3 hc18        2 hcc18         1 dih18  
 h    4 hc19        3 hcc19         2 dih19  
 h    4 hc20        3 hcc20         2 dih20  
 h    6 hc21        7 hcc21         8 dih21  
 h    6 hc22        7 hcc22         8 dih22  
 h    5 hc23        4 hcc23         3 dih23  
 h    5 hc24        4 hcc24         3 dih24  
 
cc2         1.540188
cc3         1.540243
ccc3        118.569
cc4         1.540262
ccc4        118.568
dih4        -82.878
cc5         1.540312
ccc5        118.572
dih5         83.023
cc6         1.540189
ccc6        118.566
dih6        -83.032
cc7         1.540241
ccc7        118.569
dih7         82.885
cc8         1.540263
ccc8        118.569
dih8        -82.877
hc9         1.100349
hcc9        109.349
dih9         43.195
hc10        1.098217
hcc10       106.641
dih10       156.774
hc11        1.098244
hcc11       106.648
dih11       156.766
hc12        1.100344
hcc12       109.345
dih12        43.202
hc13        1.098248
hcc13       106.642
dih13      -156.898
hc14        1.100332
hcc14       109.340
dih14       -43.327
hc15        1.098216
hcc15       106.653
dih15      -156.784
hc16        1.100354
hcc16       109.351
dih16       -43.201
hc17        1.100356
hcc17       109.342
dih17        43.347
hc18        1.098213
hcc18       106.627
dih18       156.913
hc19        1.098248
hcc19       106.636
dih19      -156.766
hc20        1.100342
hcc20       109.350
dih20       -43.206
hc21        1.100339
hcc21       109.340
dih21        43.333
hc22        1.098244
hcc22       106.652
dih22       156.909
hc23        1.098218
hcc23       106.643
dih23       156.770
hc24        1.100352
hcc24       109.349
dih24        43.192
 
 
 

