$RunGaus
%mem=8000Mb
%nproc=4
# mp2/cc-pVTZ

cyclohexene_boat_single_point

0 1 
 c
 c   1 cc2     
 c    2 cc3         1 ccc3      
 c    3 cc4         2 ccc4          1 dih4   
 c    4 cc5         3 ccc5          2 dih5   
 c    5 cc6         4 ccc6          3 dih6   
 h    4 hc7         3 hcc7          2 dih7   
 h    3 hc8         4 hcc8          5 dih8   
 h    2 hc9         3 hcc9          4 dih9   
 h    2 hc10        3 hcc10         4 dih10  
 h    5 hc11        4 hcc11         3 dih11  
 h    5 hc12        4 hcc12         3 dih12  
 h    6 hc13        5 hcc13         4 dih13  
 h    6 hc14        5 hcc14         4 dih14  
 h    1 hc15        2 hcc15         3 dih15  
 h    1 hc16        2 hcc16         3 dih16  
 
cc2         1.550074
cc3         1.508553
ccc3        111.364
cc4         1.340036
ccc4        119.049
dih4        -44.581
cc5         1.508594
ccc5        119.053
dih5         -0.020
cc6         1.550152
ccc6        111.387
dih6         44.562
hc7         1.087850
hcc7        121.272
dih7       -179.620
hc8         1.087851
hcc8        121.273
dih8        179.602
hc9         1.095272
hcc9        111.343
dih9       -167.599
hc10        1.101345
hcc10       109.081
dih10        75.718
hc11        1.101342
hcc11       109.067
dih11       -75.738
hc12        1.095274
hcc12       111.340
dih12       167.596
hc13        1.096103
hcc13       108.988
dih13      -165.782
hc14        1.095609
hcc14       107.948
dih14        79.146
hc15        1.096105
hcc15       108.994
dih15       165.932
hc16        1.095611
hcc16       107.939
dih16       -78.995
 
 
 

