# opt dreiding

butane-g

0 1
 C                 -0.00220588   -0.76873529    0.62667647
 C                  0.00179412    0.76926471    0.62667647
 H                  1.04779412   -1.14673529    0.63067647
 H                 -0.47720588   -1.12673529    1.57267647
 C                 -0.76120588   -1.37773529   -0.55932353
 H                 -1.04820588    1.14626471    0.63067647
 H                  0.47779412    1.12626471    1.57167647
 C                  0.76179412    1.37726471   -0.55932353
 H                 -0.80920588   -2.48773529   -0.47232353
 H                 -1.80820588   -0.99673529   -0.60432353
 H                 -0.26620588   -1.14573529   -1.52932353
 H                  0.80879412    2.48826471   -0.47332353
 H                  1.80779412    0.99726471   -0.60532353
 H                  0.26579412    1.14526471   -1.52932353

 1 2 1.0 3 1.0 4 1.0 5 1.0
 2 6 1.0 7 1.0 8 1.0
 3
 4
 5 9 1.0 10 1.0 11 1.0
 6
 7
 8 12 1.0 13 1.0 14 1.0
 9
 10
 11
 12
 13
 14

