# opt dreiding

cyclooctane-BC

0 1
 C                 -1.67942188   -0.29150000    0.57132812
 C                 -0.86742188    0.84350000    1.22032812
 C                 -1.65142188   -0.31350000   -0.96667187
 C                  0.50157812    0.43350000    1.78432813
 C                 -0.31242188   -0.65250000   -1.64567188
 C                  0.79057812    0.40450000   -1.47067188
 C                  1.36757812   -0.49650000    0.92432812
 C                  1.85657812    0.07450000   -0.41367187
 H                 -1.39042188   -1.28250000    0.99032813
 H                 -2.74842188   -0.15550000    0.86732813
 H                 -1.45542188    1.26550000    2.07132813
 H                 -0.76842188    1.70050000    0.51632813
 H                 -2.39942187   -1.07350000   -1.30367188
 H                 -2.02042187    0.66550000   -1.35367188
 H                  0.32257812   -0.08950000    2.75532813
 H                  1.08557813    1.35250000    2.03132813
 H                  0.04557812   -1.66250000   -1.33867187
 H                 -0.52542188   -0.74350000   -2.73867187
 H                  1.32757812    0.52850000   -2.44367187
 H                  0.34257812    1.40550000   -1.28667187
 H                  0.85257812   -1.47050000    0.76532813
 H                  2.27457813   -0.75650000    1.52532812
 H                  2.55057812   -0.68050000   -0.85967187
 H                  2.47257813    0.98450000   -0.21967187

 1 2 1.0 3 1.0 9 1.0 10 1.0
 2 4 1.0 11 1.0 12 1.0
 3 5 1.0 13 1.0 14 1.0
 4 7 1.0 15 1.0 16 1.0
 5 6 1.0 17 1.0 18 1.0
 6 8 1.0 19 1.0 20 1.0
 7 8 1.0 21 1.0 22 1.0
 8 23 1.0 24 1.0
 9
 10
 11
 12
 13
 14
 15
 16
 17
 18
 19
 20
 21
 22
 23
 24

