# opt dreiding

cyclohexene-boat

0 1
 C                 -1.03234783   -0.78067391   -0.68267391
 C                  0.00765217   -1.45267391   -0.17267391
 C                  0.90565217   -0.77667391    0.82732609
 C                 -1.28234783    0.63632609   -0.24367391
 C                  0.03465217    1.42832609   -0.21267391
 C                  1.23265217    0.65332609    0.37232609
 H                 -1.73534783   -1.26467391   -1.38167391
 H                  0.18865217   -2.50867391   -0.43967391
 H                  1.84865217   -1.36067391    0.95332609
 H                  0.38465217   -0.76867391    1.81332609
 H                 -1.75134783    0.61032609    0.76832609
 H                 -2.00634783    1.13132609   -0.93367391
 H                 -0.12234783    2.38532609    0.34032609
 H                  0.28265217    1.72032609   -1.26167391
 H                  1.68665217    1.21732609    1.22332609
 H                  2.02865217    0.59032609   -0.40967391

 1 2 2.0 4 1.0 7 1.0
 2 3 1.0 8 1.0
 3 6 1.0 9 1.0 10 1.0
 4 5 1.0 11 1.0 12 1.0
 5 6 1.0 13 1.0 14 1.0
 6 15 1.0 16 1.0
 7
 8
 9
 10
 11
 12
 13
 14
 15
 16

