# opt dreiding

cyclooctane-cc

0 1
 C                 -1.69190625   -0.51581250    0.58742187
 C                 -0.98090625    0.59618750    1.37442188
 C                 -1.64190625   -0.38681250   -0.94057813
 C                  0.47209375    0.30118750    1.77742188
 C                 -0.34890625   -0.87281250   -1.60957812
 C                  0.82709375    0.11518750   -1.58357812
 C                  1.54909375    0.81718750    0.81442187
 C                  1.81509375   -0.05581250   -0.41957813
 H                 -1.34190625   -1.52381250    0.91042188
 H                 -2.77290625   -0.47381250    0.86942187
 H                 -1.55390625    0.72718750    2.32542187
 H                 -1.06090625    1.57618750    0.84842187
 H                 -2.47090625   -1.01781250   -1.34557812
 H                 -1.87890625    0.65618750   -1.25557812
 H                  0.65109375    0.81818750    2.75242188
 H                  0.61909375   -0.78381250    1.98842188
 H                 -0.04690625   -1.86881250   -1.20757812
 H                 -0.60090625   -1.05181250   -2.68357812
 H                  1.41009375   -0.06081250   -2.52157813
 H                  0.47009375    1.16918750   -1.65657812
 H                  1.33509375    1.87018750    0.51242188
 H                  2.50509375    0.86018750    1.39142188
 H                  2.82409375    0.24018750   -0.80057813
 H                  1.91409375   -1.12781250   -0.12957812

 1 2 1.0 3 1.0 9 1.0 10 1.0
 2 4 1.0 11 1.0 12 1.0
 3 5 1.0 13 1.0 14 1.0
 4 7 1.0 15 1.0 16 1.0
 5 6 1.0 17 1.0 18 1.0
 6 8 1.0 19 1.0 20 1.0
 7 8 1.0 21 1.0 22 1.0
 8 23 1.0 24 1.0
 9
 10
 11
 12
 13
 14
 15
 16
 17
 18
 19
 20
 21
 22
 23
 24

