# opt dreiding

cyclohexene-halfchair

0 1
 C                 -1.20858696   -0.73415217   -0.38465217
 C                 -0.14358696   -1.45815217   -0.00965217
 C                  1.16641304   -0.84415217    0.40834783
 C                 -1.21058696    0.77184783   -0.42065217
 C                  0.21141304    1.34684783   -0.37165217
 C                  1.01941304    0.64984783    0.73034783
 H                 -2.14158696   -1.25015217   -0.66865217
 H                 -0.20758696   -2.56015217   -0.01665217
 H                  1.89741304   -0.99415217   -0.42065217
 H                  1.55741304   -1.37815217    1.30634783
 H                 -1.80958696    1.13684783    0.44634783
 H                 -1.71658696    1.11884783   -1.35265217
 H                  0.17241304    2.44784783   -0.19465217
 H                  0.72141304    1.18784783   -1.35265217
 H                  0.49241304    0.77984783    1.70534783
 H                  2.02741304    1.11884783    0.83534783

 1 2 2.0 4 1.0 7 1.0
 2 3 1.0 8 1.0
 3 6 1.0 9 1.0 10 1.0
 4 5 1.0 11 1.0 12 1.0
 5 6 1.0 13 1.0 14 1.0
 6 15 1.0 16 1.0
 7
 8
 9
 10
 11
 12
 13
 14
 15
 16

