# opt dreiding

DiPhEt-a

0 1
 C                  0.10286735   -0.75906122    0.03953061
 C                 -0.10313265    0.75993878   -0.03846939
 C                  1.22386735    1.48293878   -0.02446939
 C                 -1.22413265   -1.48306122    0.02553061
 C                  1.81286735    1.87593878    1.18253061
 C                  1.89586735    1.76793878   -1.21946939
 C                  3.03986735    2.54093878    1.19853061
 C                  3.69686735    2.82293878    0.00053061
 C                  3.12286735    2.43293878   -1.21046939
 C                 -1.89613265   -1.76806122    1.21953061
 C                 -1.81213265   -1.87506122   -1.18246939
 C                 -3.03913265   -2.54106122   -1.19946939
 C                 -3.69713265   -2.82306122   -0.00146939
 C                 -3.12313265   -2.43406122    1.20953061
 H                  0.72886735   -1.10506122   -0.81646939
 H                  0.66486735   -1.02306122    0.96653061
 H                 -0.66613265    1.02293878   -0.96446939
 H                 -0.72913265    1.10593878    0.81853061
 H                  1.30686735    1.65393878    2.13753061
 H                  1.45586735    1.45993878   -2.18246939
 H                  3.49086735    2.84293878    2.15953061
 H                  4.66786735    3.34693878    0.01053061
 H                  3.64086735    2.64893878   -2.16046939
 H                 -1.45713265   -1.46106122    2.18353061
 H                 -1.30613265   -1.65306122   -2.13646939
 H                 -3.49013265   -2.84206122   -2.15946939
 H                 -4.66713265   -3.34706122   -0.01246939
 H                 -3.64113265   -2.65106122    2.15953061

 1 2 1.0 4 1.0 15 1.0 16 1.0
 2 3 1.0 17 1.0 18 1.0
 3 5 1.5 6 1.5
 4 10 1.5 11 1.5
 5 7 1.5 19 1.0
 6 9 1.5 20 1.0
 7 8 1.5 21 1.0
 8 9 1.5 22 1.0
 9 23 1.0
 10 14 1.5 24 1.0
 11 12 1.5 25 1.0
 12 13 1.5 26 1.0
 13 14 1.5 27 1.0
 14 28 1.0
 15
 16
 17
 18
 19
 20
 21
 22
 23
 24
 25
 26
 27
 28

