# opt dreiding

DiPhEt-g

0 1
 C                  1.85447959   -0.56734694   -0.88633673
 C                  1.61947959    0.94465306   -1.01433673
 C                  0.81047959    1.46965306    0.14966327
 C                  0.54447959   -1.32234694   -0.89133673
 C                 -0.56852041    1.67665306    0.03166327
 C                  1.42347959    1.74165306    1.37766327
 C                 -1.31852041    2.14565306    1.11166327
 C                 -0.69352041    2.41565306    2.33066327
 C                  0.68047959    2.21265306    2.46166327
 C                 -0.04752041   -1.74334694    0.30566327
 C                 -0.11352041   -1.59934694   -2.09533673
 C                 -1.33052041   -2.28334694   -2.10633673
 C                 -1.90952041   -2.69834694   -0.90533673
 C                 -1.26452041   -2.42634694    0.30166327
 H                  2.48547959   -0.92634694   -1.73333673
 H                  2.42847959   -0.79134694    0.04366327
 H                  2.59947959    1.47865306   -1.04933673
 H                  1.10847959    1.17465306   -1.97833673
 H                 -1.07852041    1.45765306   -0.92133673
 H                  2.50747959    1.57665306    1.49766327
 H                 -2.40552041    2.29765306    1.00366327
 H                 -1.28452041    2.78265306    3.18666327
 H                  1.17847959    2.41865306    3.42466327
 H                  0.44447959   -1.52634694    1.26866327
 H                  0.32847959   -1.26834694   -3.04933673
 H                 -1.83852041   -2.49034694   -3.06333673
 H                 -2.87352041   -3.23434694   -0.91133673
 H                 -1.72052041   -2.74634694    1.25366327

 1 2 1.0 4 1.0 15 1.0 16 1.0
 2 3 1.0 17 1.0 18 1.0
 3 5 1.5 6 1.5
 4 10 1.5 11 1.5
 5 7 1.5 19 1.0
 6 9 1.5 20 1.0
 7 8 1.5 21 1.0
 8 9 1.5 22 1.0
 9 23 1.0
 10 14 1.5 24 1.0
 11 12 1.5 25 1.0
 12 13 1.5 26 1.0
 13 14 1.5 27 1.0
 14 28 1.0
 15
 16
 17
 18
 19
 20
 21
 22
 23
 24
 25
 26
 27
 28

