# opt dreiding

Et4C-T1

0 1
 C                 -0.11805405   -1.54924324    0.03829730
 C                 -0.00005405   -0.00024324    0.00029730
 C                 -0.56305405    0.56375676   -1.33470270
 C                  0.60294595   -2.32924324   -1.07070270
 C                 -2.03405405    0.25775676   -1.65370270
 C                  1.48794595    0.44275676    0.08329730
 C                 -0.80705405    0.54275676    1.21329730
 H                  0.44894595   -3.42624324   -0.94070270
 H                  0.21994595   -2.07124324   -2.08270270
 H                  1.70294595   -2.15924324   -1.05670270
 H                 -2.32405405    0.71075676   -2.62970270
 H                 -2.22605405   -0.83524324   -1.73870270
 H                 -2.72505405    0.67875676   -0.88970270
 C                  2.27494595    0.00475676    1.32629730
 H                  3.32394595    0.37775676    1.27729730
 H                  1.83694595    0.41075676    2.26629730
 H                  2.33494595   -1.10324324    1.41629730
 H                  0.25494595   -1.92624324    1.01929730
 C                 -0.84405405    2.06675676    1.39729730
 H                 -1.19405405   -1.84124324    0.01629730
 H                 -0.43205405    1.67075676   -1.35570270
 H                 -1.85905405    0.18075676    1.15129730
 H                 -0.41005405    0.09475676    2.15329730
 H                 -1.44805405    2.33775676    2.29429730
 H                  0.17094595    2.49575676    1.55629730
 H                 -1.31205405    2.58375676    0.52929730
 H                  0.05494595    0.19275676   -2.18470270
 H                  1.54894595    1.55375676    0.01529730
 H                  2.03594595    0.07575676   -0.81470270

 1 2 1.0 4 1.0 18 1.0 20 1.0
 2 3 1.0 6 1.0 7 1.0
 3 5 1.0 21 1.0 27 1.0
 4 8 1.0 9 1.0 10 1.0
 5 11 1.0 12 1.0 13 1.0
 6 14 1.0 28 1.0 29 1.0
 7 19 1.0 22 1.0 23 1.0
 8
 9
 10
 11
 12
 13
 14 15 1.0 16 1.0 17 1.0
 15
 16
 17
 18
 19 24 1.0 25 1.0 26 1.0
 20
 21
 22
 23
 24
 25
 26
 27
 28
 29

