# opt dreiding

Et4C-T3

0 1
 C                 -0.07089189   -1.54991892    0.09778378
 C                  0.00010811    0.00008108   -0.00021622
 C                 -0.56189189    0.49808108   -1.36121622
 C                  0.59310811   -2.34691892   -1.03621622
 C                 -1.97989189    0.03908108   -1.73521622
 C                  1.48610811    0.44008108    0.11778378
 C                 -0.85389189    0.61108108    1.14578378
 H                  0.47510811   -3.44191892   -0.86521622
 H                  0.13910811   -2.12991892   -2.02921622
 H                  1.68610811   -2.14991892   -1.10421622
 H                 -2.27389189    0.45008108   -2.72921622
 H                 -2.06089189   -1.06791892   -1.81221622
 H                 -2.74189189    0.39308108   -1.00621622
 C                  1.75810811    1.95108108    0.18978378
 H                  2.85210811    2.14708108    0.27778378
 H                  1.41110811    2.48408108   -0.72421622
 H                  1.27710811    2.42708108    1.07278378
 H                  0.40410811   -1.88191892    1.04978378
 C                 -0.37089189    0.35708108    2.58178378
 H                 -1.13589189   -1.86991892    0.16878378
 H                 -0.56589189    1.61308108   -1.37321622
 H                 -0.93889189    1.71308108    0.99978378
 H                 -1.89589189    0.22108108    1.07878378
 H                 -1.05389189    0.84508108    3.31678378
 H                 -0.35489189   -0.72691892    2.83378378
 H                  0.64510811    0.77108108    2.76878378
 H                  0.12810811    0.19408108   -2.18221622
 H                  2.05810811    0.04808108   -0.75521622
 H                  1.94610811   -0.03691892    1.01378378

 1 2 1.0 4 1.0 18 1.0 20 1.0
 2 3 1.0 6 1.0 7 1.0
 3 5 1.0 21 1.0 27 1.0
 4 8 1.0 9 1.0 10 1.0
 5 11 1.0 12 1.0 13 1.0
 6 14 1.0 28 1.0 29 1.0
 7 19 1.0 22 1.0 23 1.0
 8
 9
 10
 11
 12
 13
 14 15 1.0 16 1.0 17 1.0
 15
 16
 17
 18
 19 24 1.0 25 1.0 26 1.0
 20
 21
 22
 23
 24
 25
 26
 27
 28
 29

