# opt dreiding

ethylbenzene

0 1
 C                 -0.24589655   -1.01505172    0.00000000
 C                 -0.32489655    0.38294828    0.00000000
 C                  0.87510345    1.10594828    0.00000000
 C                  0.98910345   -1.66905172    0.00000000
 C                  2.17310345   -0.93205172    0.00000000
 C                  2.11410345    0.46094828    0.00000000
 C                 -1.63389655    1.14394828    0.00000000
 C                 -2.91889655    0.30494828    0.00000000
 H                 -1.15589655   -1.63405172    0.00000000
 H                  0.84710345    2.20794828    0.00000000
 H                  1.02910345   -2.77105172    0.00000000
 H                  3.14910345   -1.44705172    0.00000000
 H                  3.04510345    1.05294828    0.00000000
 H                 -1.64489655    1.80494828    0.89900000
 H                 -1.64489655    1.80494828   -0.89900000
 H                 -3.81789655    0.96394828    0.00000000
 H                 -2.98689655   -0.33905172   -0.90700000
 H                 -2.98689655   -0.33905172    0.90700000

 1 2 1.5 4 1.5 9 1.0
 2 3 1.5 7 1.0
 3 6 1.5 10 1.0
 4 5 1.5 11 1.0
 5 6 1.5 12 1.0
 6 13 1.0
 7 8 1.0 14 1.0 15 1.0
 8 16 1.0 17 1.0 18 1.0
 9
 10
 11
 12
 13
 14
 15
 16
 17
 18

