# opt dreiding

tetraBn-ethene-C1,C1-syn

0 1
 C                 -0.45894712   -0.47405769    0.14897596
 C                  0.45605288    0.47694231   -0.14902404
 C                  0.13205288    1.95794231   -0.26602404
 C                  0.61405288    2.73094231    0.93997596
 C                  1.93305288    0.19194231   -0.37402404
 C                  2.77005288    0.62094231    0.80897596
 C                 -0.13494712   -1.95505769    0.26597596
 C                 -0.61294712   -2.72905769   -0.94102404
 C                 -1.93594712   -0.18905769    0.37397596
 C                 -2.77294712   -0.62105769   -0.80802404
 C                  0.17605288    2.39294231    2.22597596
 C                  1.51405288    3.79494231    0.80397596
 C                  1.98005288    4.48894231    1.92197596
 C                  0.63905288    3.08294231    3.34797596
 C                  1.54705288    4.13094231    3.19797596
 C                  3.80805288    1.54794231    0.66097596
 C                  2.51905288    0.10394231    2.08597596
 C                  3.26805288    0.51794231    3.18897596
 C                  4.56205288    1.96594231    1.75897596
 C                  4.28905288    1.45394231    3.02897596
 C                 -1.50794712   -3.79705769   -0.80602404
 C                 -0.17794712   -2.38705769   -2.22702404
 C                 -0.63794712   -3.07605769   -3.35002404
 C                 -1.97194712   -4.49205769   -1.92502404
 C                 -1.54094712   -4.12905769   -3.20102404
 C                 -2.52594712   -0.10305769   -2.08402404
 C                 -3.80594712   -1.55405769   -0.65902404
 C                 -4.55894712   -1.97405769   -1.75702404
 C                 -3.27394712   -0.51805769   -3.18702404
 C                 -4.29094712   -1.46005769   -3.02602404
 H                  0.59405288    2.34694231   -1.20202404
 H                 -0.94794712    2.17694231   -0.40002404
 H                  2.16305288   -0.87405769   -0.58202404
 H                  2.25505288    0.71394231   -1.30302404
 H                  0.94505288   -2.17405769    0.40197596
 H                 -0.59794712   -2.34505769    1.20097596
 H                 -2.25694712   -0.71005769    1.30497596
 H                 -2.16594712    0.87694231    0.58097596
 H                 -0.53194712    1.55994231    2.36597596
 H                  1.87905288    4.08394231   -0.19502404
 H                  2.70205288    5.31394231    1.79697596
 H                  0.29505288    2.79094231    4.35497596
 H                  1.92305288    4.66994231    4.08397596
 H                  4.03005288    1.97494231   -0.33102404
 H                  1.70805288   -0.62705769    2.23497596
 H                  3.04505288    0.11194231    4.18997596
 H                  5.36505288    2.70994231    1.62697596
 H                  4.87605288    1.79094231    3.89997596
 H                 -1.87094712   -4.09005769    0.19297596
 H                  0.52605288   -1.55005769   -2.36602404
 H                 -0.29594712   -2.78205769   -4.35602404
 H                 -2.68994712   -5.32005769   -1.80102404
 H                 -1.91494712   -4.66905769   -4.08702404
 H                 -1.71794712    0.63194231   -2.23302404
 H                 -4.02394712   -1.98205769    0.33297596
 H                 -5.35894712   -2.72205769   -1.62302404
 H                 -3.05394712   -0.11105769   -4.18802404
 H                 -4.87694712   -1.79805769   -3.89702404

 1 2 2.0 7 1.0 9 1.0
 2 3 1.0 5 1.0
 3 4 1.0 31 1.0 32 1.0
 4 11 1.5 12 1.5
 5 6 1.0 33 1.0 34 1.0
 6 16 1.5 17 1.5
 7 8 1.0 35 1.0 36 1.0
 8 21 1.5 22 1.5
 9 10 1.0 37 1.0 38 1.0
 10 26 1.5 27 1.5
 11 14 1.5 39 1.0
 12 13 1.5 40 1.0
 13 15 1.5 41 1.0
 14 15 1.5 42 1.0
 15 43 1.0
 16 19 1.5 44 1.0
 17 18 1.5 45 1.0
 18 20 1.5 46 1.0
 19 20 1.5 47 1.0
 20 48 1.0
 21 24 1.5 49 1.0
 22 23 1.5 50 1.0
 23 25 1.5 51 1.0
 24 25 1.5 52 1.0
 25 53 1.0
 26 29 1.5 54 1.0
 27 28 1.5 55 1.0
 28 30 1.5 56 1.0
 29 30 1.5 57 1.0
 30 58 1.0
 31
 32
 33
 34
 35
 36
 37
 38
 39
 40
 41
 42
 43
 44
 45
 46
 47
 48
 49
 50
 51
 52
 53
 54
 55
 56
 57
 58

