# opt dreiding

TMH-a

0 1
 C                  1.56363415   -2.91401220    0.03776829
 C                  1.39263415   -1.40801220   -0.22623171
 C                 -0.02236585   -0.79301220   -0.01223171
 C                  0.02263415    0.79298780   -0.01223171
 C                 -1.39136585    1.40798780   -0.23423171
 C                 -1.56336585    2.91398780    0.02876829
 C                 -0.93936585   -1.32701220   -1.14323171
 C                 -0.59936585   -1.33301220    1.32076829
 C                  0.59163415    1.33298780    1.32376829
 C                  0.94563415    1.32698780   -1.13723171
 H                  2.60163415   -3.23801220   -0.20923171
 H                  1.40163415   -3.17401220    1.10876829
 H                  0.88063415   -3.53701220   -0.58123171
 H                  2.12863415   -0.89501220    0.43276829
 H                  1.71763415   -1.22501220   -1.27723171
 H                 -1.71036585    1.22498780   -1.28723171
 H                 -2.13136585    0.89498780    0.42076829
 H                 -2.60036585    3.23798780   -0.22423171
 H                 -1.40836585    3.17398780    1.10076829
 H                 -0.87636585    3.53698780   -0.58623171
 H                 -2.00836585   -1.06101220   -0.98723171
 H                 -0.63136585   -0.95201220   -2.14423171
 H                 -0.92836585   -2.43701220   -1.20423171
 H                 -1.56136585   -0.84801220    1.59776829
 H                 -0.82136585   -2.42201220    1.26676829
 H                  0.10763415   -1.19201220    2.16876829
 H                  0.81363415    2.42198780    1.27176829
 H                 -0.12036585    1.19198780    2.16776829
 H                  1.55163415    0.84898780    1.60676829
 H                  0.93563415    2.43698780   -1.19923171
 H                  2.01363415    1.06098780   -0.97623171
 H                  0.64363415    0.95198780   -2.14023171

 1 2 1.0 11 1.0 12 1.0 13 1.0
 2 3 1.0 14 1.0 15 1.0
 3 4 1.0 7 1.0 8 1.0
 4 5 1.0 9 1.0 10 1.0
 5 6 1.0 16 1.0 17 1.0
 6 18 1.0 19 1.0 20 1.0
 7 21 1.0 22 1.0 23 1.0
 8 24 1.0 25 1.0 26 1.0
 9 27 1.0 28 1.0 29 1.0
 10 30 1.0 31 1.0 32 1.0
 11
 12
 13
 14
 15
 16
 17
 18
 19
 20
 21
 22
 23
 24
 25
 26
 27
 28
 29
 30
 31
 32

