# opt dreiding

trineopentylbenzene-tribr-twsyn

0 1
 C                 -1.06532197   -0.92254924   -0.00473106
 C                 -1.32832197    0.42545076   -0.32873106
 C                 -0.21632197    1.26345076   -0.55773106
 C                  0.24467803   -1.42554924    0.13126894
 C                  1.31167803   -0.51454924   -0.00373106
 C                  1.11067803    0.84345076   -0.32773106
 C                  2.29267803    1.81745076   -0.45373106
 C                  2.71467803    2.61145076    0.81826894
 C                  3.92867803    3.49945076    0.45326894
 C                  1.59967803    3.53545076    1.34526894
 C                  3.13467803    1.69645076    1.98626894
 C                 -2.76732197    0.94945076   -0.45473106
 C                 -3.43032197    1.55845076    0.81626894
 C                 -3.51932197    0.55745076    1.98526894
 C                 -2.68832197    2.80245076    1.34226894
 C                 -4.87132197    1.98845076    0.45126894
 C                  0.49767803   -2.90554924    0.45226894
 C                  0.66567803   -3.88054924   -0.75073106
 C                 -0.39332197   -5.00754924   -0.69373106
 C                  0.54367803   -3.16754924   -2.11273106
 C                  2.03867803   -4.59054924   -0.69373106
 Br                 3.09967803   -1.17854924    0.17926894
 Br                -2.53032197   -2.14354924    0.17826894
 Br                -0.51732197    3.02145076   -1.26573106
 H                  3.18667803    1.29145076   -0.85273106
 H                  2.11667803    2.54045076   -1.27773106
 H                  4.27767803    4.09545076    1.32726894
 H                  4.79167803    2.88845076    0.10426894
 H                  3.67767803    4.21945076   -0.35873106
 H                  1.92367803    4.09145076    2.25526894
 H                  1.31967803    4.30945076    0.59726894
 H                  0.69467803    2.95545076    1.63126894
 H                  3.40967803    2.28745076    2.88926894
 H                  2.30867803    1.01445076    2.28826894
 H                  4.03367803    1.09445076    1.73126894
 H                 -2.84132197    1.69045076   -1.27973106
 H                 -3.43432197    0.15645076   -0.85373106
 H                 -3.97532197    1.02245076    2.88826894
 H                 -4.16532197   -0.31154924    1.73226894
 H                 -2.51232197    0.19045076    2.28726894
 H                 -3.17932197    3.21945076    2.25126894
 H                 -1.64132197    2.55945076    1.62826894
 H                 -2.68332197    3.62545076    0.59326894
 H                 -5.39932197    2.43445076    1.32526894
 H                 -4.87532197    2.75045076   -0.36173106
 H                 -5.48032197    1.12345076    0.10326894
 H                  1.36267803   -3.00554924    1.14226894
 H                 -0.28432197   -3.28854924    1.14226894
 H                 -0.24432197   -5.75354924   -1.50773106
 H                 -0.35032197   -5.56154924    0.27226894
 H                 -1.42732197   -4.61954924   -0.81873106
 H                  0.66667803   -3.88354924   -2.95773106
 H                 -0.45232197   -2.68654924   -2.24073106
 H                  1.32267803   -2.38254924   -2.23973106
 H                  2.14667803   -5.34354924   -1.50773106
 H                  2.88467803   -3.88054924   -0.81673106
 H                  2.18167803   -5.12754924    0.27226894

 1 2 1.5 4 1.5 23 1.0
 2 3 1.5 12 1.0
 3 6 1.5 24 1.0
 4 5 1.5 17 1.0
 5 6 1.5 22 1.0
 6 7 1.0
 7 8 1.0 25 1.0 26 1.0
 8 9 1.0 10 1.0 11 1.0
 9 27 1.0 28 1.0 29 1.0
 10 30 1.0 31 1.0 32 1.0
 11 33 1.0 34 1.0 35 1.0
 12 13 1.0 36 1.0 37 1.0
 13 14 1.0 15 1.0 16 1.0
 14 38 1.0 39 1.0 40 1.0
 15 41 1.0 42 1.0 43 1.0
 16 44 1.0 45 1.0 46 1.0
 17 18 1.0 47 1.0 48 1.0
 18 19 1.0 20 1.0 21 1.0
 19 49 1.0 50 1.0 51 1.0
 20 52 1.0 53 1.0 54 1.0
 21 55 1.0 56 1.0 57 1.0
 22
 23
 24
 25
 26
 27
 28
 29
 30
 31
 32
 33
 34
 35
 36
 37
 38
 39
 40
 41
 42
 43
 44
 45
 46
 47
 48
 49
 50
 51
 52
 53
 54
 55
 56
 57

