# opt uff

2-me-histamine-t

1 1
 C                  1.31508696    0.53313043    0.04098551
 C                  0.04908696    0.23313043   -0.27201449
 N                  2.06908696   -0.51286957   -0.30301449
 C                  1.22708696   -1.41786957   -0.81801449
 N                 -0.05591304   -0.99786957   -0.82301449
 C                 -1.13691304    1.13113043   -0.05401449
 C                 -1.54691304    1.14313043    1.42198551
 N                 -2.73191304    2.05213043    1.52498551
 H                  1.75108696    1.43713043    0.49598551
 H                 -0.87491304    2.16213043   -0.39001449
 H                 -1.98491304    0.78013043   -0.68801449
 H                 -1.84291304    0.12713043    1.77298551
 H                 -0.73391304    1.53913043    2.07398551
 H                 -3.08691304    2.12313043    2.50298551
 H                 -2.50891304    3.02113043    1.21298551
 H                 -3.52791304    1.72313043    0.93798551
 H                  3.06908696   -0.60286957   -0.19801449
 C                  1.66408696   -2.75486957   -1.33601449
 H                  2.43408696   -2.62686957   -2.13001449
 H                  2.10108696   -3.36186957   -0.51101449
 H                  0.80708696   -3.31786957   -1.77001449

 1 2 2.0 3 1.5 9 1.0
 2 5 1.5 6 1.0
 3 4 1.5 17 1.0
 4 5 1.5 18 1.0
 5
 6 7 1.0 10 1.0 11 1.0
 7 8 1.0 12 1.0 13 1.0
 8 14 1.0 15 1.0 16 1.0
 9
 10
 11
 12
 13
 14
 15
 16
 17
 18 19 1.0 20 1.0 21 1.0
 19
 20
 21

