# opt uff

3-me-histamine-g+

1 1
 C                  0.81557971    0.44734783   -0.37811594
 C                 -0.46942029    0.09234783   -0.49811594
 N                  1.60457971   -0.59865217   -0.66811594
 C                  0.70057971   -1.54665217   -0.95311594
 N                 -0.59642029   -1.19865217   -0.87411594
 C                 -1.65242029    0.98834783   -0.25811594
 C                 -2.25442029    0.76934783    1.13388406
 N                 -1.19642029    1.13634783    2.12788406
 H                  1.24757971    1.41934783   -0.08811594
 H                 -1.35042029    2.05434783   -0.38111594
 H                 -2.42242029    0.77734783   -1.03811594
 H                 -3.14042029    1.42534783    1.29888406
 H                 -2.55042029   -0.29365217    1.29288406
 H                 -1.53042029    1.03434783    3.10988406
 H                 -0.34742029    0.53734783    2.03388406
 H                 -0.88142029    2.12334783    2.01588406
 C                  3.03457971   -0.70065217   -0.60411594
 H                  0.99257971   -2.56965217   -1.24011594
 H                  3.34457971   -0.95565217    0.43488406
 H                  3.40257971   -1.49165217   -1.29611594
 H                  3.50657971    0.26534783   -0.89611594

 1 2 2.0 3 1.5 9 1.0
 2 5 1.5 6 1.0
 3 4 1.5 17 1.0
 4 5 1.5 18 1.0
 5
 6 7 1.0 10 1.0 11 1.0
 7 8 1.0 12 1.0 13 1.0
 8 14 1.0 15 1.0 16 1.0
 9
 10
 11
 12
 13
 14
 15
 16
 17 19 1.0 20 1.0 21 1.0
 18
 19
 20
 21

