# opt uff

4-me-histamine-t

1 1
 C                 -0.40785507    1.07744928   -0.64418841
 C                  0.43914493    0.05844928   -0.42318841
 N                  0.33414493    2.11944928   -1.03818841
 C                  1.59214493    1.67844928   -1.03218841
 N                  1.73014493    0.39544928   -0.65618841
 C                  0.06214493   -1.32455072    0.03581159
 C                 -0.28685507   -1.33355072    1.52881159
 N                 -0.62785507   -2.75055072    1.87381159
 C                 -1.90085507    1.11844928   -0.51318841
 H                 -0.79585507   -1.69655072   -0.57118841
 H                  0.91514493   -2.01655072   -0.15718841
 H                  0.57914493   -1.01155072    2.15081159
 H                 -1.16585507   -0.68955072    1.75681159
 H                 -0.87785507   -2.85755072    2.88081159
 H                 -1.43985507   -3.10155072    1.32181159
 H                  0.16614493   -3.39955072    1.68781159
 H                  2.44814493    2.31244928   -1.31118841
 H                  0.00914493    3.04244928   -1.28518841
 H                 -2.34785507    0.10344928   -0.42818841
 H                 -2.18385507    1.70244928    0.39181159
 H                 -2.34885507    1.61344928   -1.40418841

 1 2 2.0 3 1.5 9 1.0
 2 5 1.5 6 1.0
 3 4 1.5 18 1.0
 4 5 1.5 17 1.0
 5
 6 7 1.0 10 1.0 11 1.0
 7 8 1.0 12 1.0 13 1.0
 8 14 1.0 15 1.0 16 1.0
 9 19 1.0 20 1.0 21 1.0
 10
 11
 12
 13
 14
 15
 16
 17
 18
 19
 20
 21

