# opt uff

a-me-histamine-t

1 1
 C                  1.72265217    0.11959420   -0.32701449
 C                  0.44665217   -0.02740580   -0.70801449
 N                  2.42265217   -0.88540580   -0.85901449
 C                  1.52565217   -1.59740580   -1.54301449
 N                  0.26865217   -1.11640580   -1.49301449
 C                 -0.68234783    0.88759420   -0.32401449
 C                 -0.99434783    0.79859420    1.17398551
 N                 -2.13634783    1.74359420    1.40198551
 H                  2.20165217    0.88559420    0.30398551
 H                 -0.39434783    1.93159420   -0.59501449
 C                 -1.51034783   -0.57340580    1.61898551
 H                 -0.12834783    1.12659420    1.79698551
 H                 -2.43134783    1.76559420    2.40098551
 H                 -1.89134783    2.72159420    1.13698551
 H                 -2.97734783    1.48059420    0.84398551
 H                  3.41065217   -1.06540580   -0.76501449
 H                  1.78965217   -2.50640580   -2.10601449
 H                 -1.58634783    0.62959420   -0.92401449
 H                 -2.39834783   -0.88940580    1.02398551
 H                 -0.72434783   -1.35240580    1.49398551
 H                 -1.80234783   -0.56540580    2.69398551

 1 2 2.0 3 1.5 9 1.0
 2 5 1.5 6 1.0
 3 4 1.5 16 1.0
 4 5 1.5 17 1.0
 5
 6 7 1.0 10 1.0 18 1.0
 7 8 1.0 11 1.0 12 1.0
 8 13 1.0 14 1.0 15 1.0
 9
 10
 11 19 1.0 20 1.0 21 1.0
 12
 13
 14
 15
 16
 17
 18
 19
 20
 21

