# opt uff

a-me-histamine-g-

1 1
 C                  0.13818841   -1.03168116   -1.35546377
 C                  0.28418841    0.13431884   -0.71146377
 N                 -0.91681159   -0.91668116   -2.16746377
 C                 -1.35281159    0.32931884   -1.98046377
 N                 -0.64581159    1.04431884   -1.08446377
 C                  1.35618841    0.44231884    0.29653623
 C                  0.92218841    0.19731884    1.74653623
 N                 -0.23981159    1.10931884    1.99753623
 H                  0.71818841   -1.96668116   -1.29346377
 H                  2.25018841   -0.18768116    0.07653623
 C                  0.40818841   -1.21668116    2.03153623
 H                  1.74418841    0.46631884    2.45353623
 H                 -0.58181159    1.04431884    2.98053623
 H                  0.00318841    2.10831884    1.82653623
 H                 -1.05181159    0.88631884    1.38253623
 H                 -1.29181159   -1.61468116   -2.79146377
 H                 -2.21981159    0.74431884   -2.51746377
 H                  1.67718841    1.50231884    0.16753623
 H                 -0.49181159   -1.46668116    1.42453623
 H                  1.19418841   -1.97168116    1.80353623
 H                  0.13018841   -1.33268116    3.10453623

 1 2 2.0 3 1.5 9 1.0
 2 5 1.5 6 1.0
 3 4 1.5 16 1.0
 4 5 1.5 17 1.0
 5
 6 7 1.0 10 1.0 18 1.0
 7 8 1.0 11 1.0 12 1.0
 8 13 1.0 14 1.0 15 1.0
 9
 10
 11 19 1.0 20 1.0 21 1.0
 12
 13
 14
 15
 16
 17
 18
 19
 20
 21

