# opt uff

a-me-histamine-g+

1 1
 C                 -0.19423188    1.27057971   -1.17127536
 C                  0.48776812    0.26057971   -0.61527536
 N                  0.60376812    2.34157971   -1.18027536
 C                  1.74176812    1.91857971   -0.62927536
 N                  1.73976812    0.62657971   -0.25327536
 C                 -0.03523188   -1.13342029   -0.40827536
 C                 -0.49823188   -1.35542029    1.03572464
 N                 -1.64923188   -0.41942029    1.25072464
 H                 -1.22023188    1.31357971   -1.57127536
 H                 -0.87223188   -1.33042029   -1.11927536
 C                 -1.06623188   -2.75742029    1.27772464
 H                  0.30976812   -1.11842029    1.76772464
 H                 -2.05223188   -0.51042029    2.20772464
 H                 -1.36923188    0.57857971    1.13472464
 H                 -2.42623188   -0.59542029    0.57872464
 H                  0.39276812    3.26357971   -1.53227536
 H                  2.61676812    2.57457971   -0.49227536
 H                  0.77676812   -1.85742029   -0.65527536
 H                 -1.91023188   -2.98342029    0.58572464
 H                 -0.28023188   -3.53042029    1.11772464
 H                 -1.43923188   -2.86642029    2.32172464

 1 2 2.0 3 1.5 9 1.0
 2 5 1.5 6 1.0
 3 4 1.5 16 1.0
 4 5 1.5 17 1.0
 5
 6 7 1.0 10 1.0 18 1.0
 7 8 1.0 11 1.0 12 1.0
 8 13 1.0 14 1.0 15 1.0
 9
 10
 11 19 1.0 20 1.0 21 1.0
 12
 13
 14
 15
 16
 17
 18
 19
 20
 21

