# opt uff

b-me-histamine-g-

1 1
 C                 -0.99710145    0.87000000   -0.19604348
 C                 -0.18210145   -0.13700000   -0.54104348
 N                 -2.18810145    0.64400000   -0.75604348
 C                 -2.03510145   -0.50000000   -1.42404348
 N                 -0.80710145   -1.04200000   -1.33204348
 C                  1.26189855   -0.29400000   -0.13404348
 C                  1.37789855   -0.94200000    1.25395652
 N                  0.75889855   -0.02000000    2.25795652
 H                 -0.82410145    1.76200000    0.42595652
 H                  1.72889855   -0.99800000   -0.86704348
 C                  2.03889855    1.02800000   -0.23404348
 H                  0.84289855   -1.91900000    1.29195652
 H                  2.44389855   -1.10600000    1.53595652
 H                  0.81189855   -0.40500000    3.22495652
 H                  1.22889855    0.91000000    2.27895652
 H                 -0.24910145    0.15700000    2.05995652
 H                 -3.01710145    1.21500000   -0.69104348
 H                 -2.84810145   -0.96600000   -2.00404348
 H                  1.65389855    1.80000000    0.46995652
 H                  1.97789855    1.45100000   -1.26404348
 H                  3.11789855    0.87500000    0.00095652

 1 2 2.0 3 1.5 9 1.0
 2 5 1.5 6 1.0
 3 4 1.5 17 1.0
 4 5 1.5 18 1.0
 5
 6 7 1.0 10 1.0 11 1.0
 7 8 1.0 12 1.0 13 1.0
 8 14 1.0 15 1.0 16 1.0
 9
 10
 11 19 1.0 20 1.0 21 1.0
 12
 13
 14
 15
 16
 17
 18
 19
 20
 21

