# opt uff

b-me-histamine-t

1 1
 C                  0.56202899   -1.48046377   -0.16542029
 C                  0.55602899   -0.14746377   -0.30242029
 N                  1.79402899   -1.91246377   -0.44342029
 C                  2.48102899   -0.80746377   -0.73742029
 N                  1.76802899    0.33153623   -0.66942029
 C                 -0.63597101    0.75253623   -0.08342029
 C                 -1.11697101    0.63953623    1.37157971
 N                 -2.19197101    1.66253623    1.57157971
 H                 -0.23997101   -2.18046377    0.11757971
 H                 -0.30497101    1.80353623   -0.26542029
 C                 -1.74297101    0.41453623   -1.09542029
 H                 -1.53497101   -0.36846377    1.59657971
 H                 -0.28997101    0.86153623    2.08657971
 H                 -2.54097101    1.67453623    2.55357971
 H                 -1.85797101    2.62653623    1.35757971
 H                 -3.01797101    1.48853623    0.96057971
 H                  2.13102899   -2.86346377   -0.43242029
 H                  3.54702899   -0.82446377   -1.01442029
 H                 -2.13897101   -0.61546377   -0.93942029
 H                 -1.36097101    0.47853623   -2.14042029
 H                 -2.60097101    1.12053623   -1.01642029

 1 2 2.0 3 1.5 9 1.0
 2 5 1.5 6 1.0
 3 4 1.5 17 1.0
 4 5 1.5 18 1.0
 5
 6 7 1.0 10 1.0 11 1.0
 7 8 1.0 12 1.0 13 1.0
 8 14 1.0 15 1.0 16 1.0
 9
 10
 11 19 1.0 20 1.0 21 1.0
 12
 13
 14
 15
 16
 17
 18
 19
 20
 21

