# opt uff

b-me-histamine-g+

1 1
 C                  1.32840580    0.52737681   -0.16395652
 C                  0.03540580    0.26037681   -0.39395652
 N                  1.52240580    1.82937681   -0.39095652
 C                  0.32440580    2.29037681   -0.75295652
 N                 -0.65059420    1.36337681   -0.77595652
 C                 -0.61959420   -1.09062319   -0.25595652
 C                 -0.51759420   -1.61562319    1.18404348
 N                 -1.18559420   -0.60362319    2.06304348
 H                  2.15540580   -0.12662319    0.15604348
 H                 -1.70159420   -0.97962319   -0.51395652
 C                  0.00140580   -2.08962319   -1.24495652
 H                 -1.04759420   -2.58862319    1.30004348
 H                  0.54040580   -1.73762319    1.51204348
 H                 -1.17859420   -0.89162319    3.06504348
 H                 -0.71759420    0.32737681    2.01304348
 H                 -2.18259420   -0.45362319    1.79904348
 H                  2.38440580    2.34737681   -0.30795652
 H                  0.14540580    3.34637681   -1.01195652
 H                  1.08040580   -2.26262319   -1.02995652
 H                 -0.08359420   -1.72162319   -2.29395652
 H                 -0.51259420   -3.07662319   -1.19395652

 1 2 2.0 3 1.5 9 1.0
 2 5 1.5 6 1.0
 3 4 1.5 17 1.0
 4 5 1.5 18 1.0
 5
 6 7 1.0 10 1.0 11 1.0
 7 8 1.0 12 1.0 13 1.0
 8 14 1.0 15 1.0 16 1.0
 9
 10
 11 19 1.0 20 1.0 21 1.0
 12
 13
 14
 15
 16
 17
 18
 19
 20
 21

