# opt uff

histamine-t

1 1
 C                  1.53862295    0.14159016   -0.13652459
 C                  0.27262295   -0.15440984   -0.45952459
 N                  2.29962295   -0.89740984   -0.48852459
 C                  1.44662295   -1.77840984   -1.01352459
 N                  0.16162295   -1.37740984   -1.02852459
 C                 -0.91037705    0.74559016   -0.23352459
 C                 -1.31637705    0.75159016    1.24347541
 N                 -2.50037705    1.66259016    1.35347541
 H                  1.97062295    1.04059016    0.33347541
 H                 -0.64637705    1.77759016   -0.56552459
 H                 -1.76137705    0.40059016   -0.86652459
 H                 -1.61337705   -0.26540984    1.59047541
 H                 -0.50137705    1.14359016    1.89547541
 H                 -2.85237705    1.73059016    2.33247541
 H                 -2.27537705    2.63359016    1.04547541
 H                 -3.29837705    1.33859016    0.76647541
 H                  3.29862295   -0.99340984   -0.38252459
 H                  1.76662295   -2.75640984   -1.40652459

 1 2 2.0 3 1.5 9 1.0
 2 5 1.5 6 1.0
 3 4 1.5 17 1.0
 4 5 1.5 18 1.0
 5
 6 7 1.0 10 1.0 11 1.0
 7 8 1.0 12 1.0 13 1.0
 8 14 1.0 15 1.0 16 1.0
 9
 10
 11
 12
 13
 14
 15
 16
 17
 18

