$RunGaus
%mem=16000Mb
%nproc=8
# opt  b3lyp/6-31+g(d,p)   

3b-aminotropane-3a

0 1
 N                 -1.00396250   -0.78250000   -0.46948750
 C                 -0.98896250    0.66850000   -0.50948750
 C                  0.40603750   -1.13250000   -0.48848750
 C                 -0.54996250    1.18050000    0.87651250
 C                  0.99503750   -0.81450000    0.90051250
 C                  0.85503750    0.67650000    1.21951250
 C                 -1.77696250   -1.39350000   -1.53248750
 N                  1.03503750    0.83350000    2.69851250
 C                  0.99503750   -0.22450000   -1.58548750
 C                  0.05003750    0.99550000   -1.60048750
 H                 -1.99996250    1.08250000   -0.74248750
 H                  0.55603750   -2.21850000   -0.70348750
 H                 -0.57296250    2.29550000    0.90451250
 H                 -1.28396250    0.81650000    1.63551250
 H                  0.45003750   -1.42250000    1.66251250
 H                  2.06803750   -1.11650000    0.94551250
 H                  1.64103750    1.27850000    0.70651250
 H                 -1.40996250   -1.12150000   -2.54748750
 H                 -1.74696250   -2.50150000   -1.42648750
 H                 -2.84296250   -1.08550000   -1.44348750
 H                  1.97103750    0.50250000    3.01451250
 H                  0.94603750    1.82750000    2.99851250
 H                  0.98003750   -0.74250000   -2.57348750
 H                  2.05503750    0.05250000   -1.37648750
 H                 -0.44396250    1.09550000   -2.59548750
 H                  0.58103750    1.95550000   -1.39948750
 H                 -1.40296250   -1.08150000    0.42051250
 H                  0.32603750    0.29050000    3.23651250

