$RunGaus
%mem=8000Mb
%nproc=4
# b3lyp/6-31+g(d,p)

N_Ac_Ala_N_Me_a_a_single_point

0 1 
 c
 c   1 cc2     
 n    2 nc3         1 ncc3      
 c    3 cn4         2 cnc4          1 dih4   
 c    4 cc5         3 ccn5          2 dih5   
 o    2 oc6         3 ocn6          4 dih6   
 c    4 cc7         3 ccn7          2 dih7   
 n    7 nc8         4 ncc8          3 dih8   
 c    8 cn9         7 cnc9          4 dih9   
 o    7 oc10        4 occ10         3 dih10  
 h    1 hc11        2 hcc11         6 dih11  
 h    1 hc12        2 hcc12         6 dih12  
 h    1 hc13        2 hcc13         6 dih13  
 h    4 hc14        3 hcn14         2 dih14  
 h    3 hn15        2 hnc15         1 dih15  
 h    8 hn16        7 hnc16         4 dih16  
 h    9 hc17        8 hcn17         7 dih17  
 h    9 hc18        8 hcn18         7 dih18  
 h    9 hc19        8 hcn19         7 dih19  
 h    5 hc20        4 hcc20         3 dih20  
 h    5 hc21        4 hcc21         3 dih21  
 h    5 hc22        4 hcc22         3 dih22  
 
cc2         1.521107
nc3         1.364500
ncc3        115.181
cn4         1.451728
cnc4        122.451
dih4        177.824
cc5         1.542833
ccn5        112.097
dih5         82.564
oc6         1.235658
ocn6        122.157
dih6         -2.114
cc7         1.534954
ccn7        107.166
dih7       -155.430
nc8         1.352759
ncc8        115.983
dih8        158.449
cn9         1.458084
cnc9        121.807
dih9        177.636
oc10        1.218257
occ10       121.651
dih10       -23.424
hc11        1.095408
hcc11       111.023
dih11      -122.159
hc12        1.095635
hcc12       110.822
dih12       118.042
hc13        1.089991
hcc13       108.675
dih13        -1.927
hc14        1.096660
hcn14       107.849
dih14       -36.891
hn15        1.013862
hnc15       121.742
dih15         3.142
hn16        1.009024
hnc16       118.983
dih16        -5.736
hc17        1.091350
hcn17       108.693
dih17      -176.416
hc18        1.094538
hcn18       111.010
dih18        63.375
hc19        1.093428
hcn19       110.435
dih19       -56.569
hc20        1.092489
hcc20       109.006
dih20       -58.197
hc21        1.094360
hcc21       110.430
dih21        61.633
hc22        1.095294
hcc22       111.231
dih22      -177.736
 
 
 
 

