$RunGaus
%mem=8000Mb
%nproc=4
# b3lyp/6-31+g(d,p) 

N_Me_ethylamine_a_single_point

0 1 
 c
 c   1 cc2     
 n    2 nc3         1 ncc3      
 c    3 cn4         2 cnc4          1 dih4   
 h    2 hc5         3 hcn5          4 dih5   
 h    2 hc6         3 hcn6          4 dih6   
 h    1 hc7         2 hcc7          3 dih7   
 h    1 hc8         2 hcc8          3 dih8   
 h    3 hn9         2 hnc9          1 dih9   
 h    1 hc10        2 hcc10         3 dih10  
 h    4 hc11        3 hcn11         2 dih11  
 h    4 hc12        3 hcn12         2 dih12  
 h    4 hc13        3 hcn13         2 dih13  
 
cc2         1.527082
nc3         1.461671
ncc3        111.346
cn4         1.459123
cnc4        113.649
dih4        178.503
hc5         1.098052
hcn5        107.508
dih5        -61.352
hc6         1.108147
hcn6        112.196
dih6         55.203
hc7         1.095063
hcc7        110.776
dih7        178.463
hc8         1.097172
hcc8        111.143
dih8        -62.069
hn9         1.017251
hnc9        109.512
dih9         55.264
hc10        1.094437
hcc10       110.651
dih10        57.914
hc11        1.094208
hcn11       109.641
dih11      -176.710
hc12        1.106128
hcn12       114.034
dih12       -55.024
hc13        1.096051
hcn13       109.363
dih13        65.482
 
 
 
 

