$RunGaus
%mem=8000Mb
%nproc=4
# b3lyp/6-31+g(d,p) 

N_Me_ethylamine_g+_single_point

0 1 
 c
 c   1 cc2     
 n    2 nc3         1 ncc3      
 c    3 cn4         2 cnc4          1 dih4   
 h    2 hc5         3 hcn5          4 dih5   
 h    2 hc6         3 hcn6          4 dih6   
 h    1 hc7         2 hcc7          3 dih7   
 h    1 hc8         2 hcc8          3 dih8   
 h    3 hn9         2 hnc9          1 dih9   
 h    1 hc10        2 hcc10         3 dih10  
 h    4 hc11        3 hcn11         2 dih11  
 h    4 hc12        3 hcn12         2 dih12  
 h    4 hc13        3 hcn13         2 dih13  
 
cc2         1.538412
nc3         1.463403
ncc3        116.813
cn4         1.459880
cnc4        115.571
dih4         64.694
hc5         1.096999
hcn5        107.304
dih5       -172.445
hc6         1.098199
hcn6        107.254
dih6        -58.579
hc7         1.096460
hcc7        110.485
dih7        178.583
hc8         1.095009
hcc8        112.051
dih8        -61.499
hn9         1.016562
hnc9        110.188
dih9        -61.280
hc10        1.096999
hcc10       110.967
dih10        59.186
hc11        1.094535
hcn11       109.175
dih11       177.824
hc12        1.103663
hcn12       115.296
dih12       -60.537
hc13        1.096370
hcn13       109.006
dih13        60.696
 
 
 
 

