$RunGaus
%mem=8000Mb
%nproc=8
%RWF=/media/S/Gaussian_scratch/,140GB,/media/TOSHIBA\ EXT/,200GB,/home/scratch/stylianakis/,60GB,
%NoSave
# mp2/dgdzvp

2-SnBu3-N-Me-piperidine-ax,ax

0 1
 C              
 N                  1            B1
 C                  2            B2    1            A1
 C                  1            B3    2            A2    3            D1    0
 C                  3            B4    2            A3    1            D2    0
 C                  4            B5    1            A4    2            D3    0
 C                  2            B6    1            A5    4            D4    0
 H                  1            B7    2            A6    7            D5    0
 H                  3            B8    2            A7    1            D6    0
 H                  3            B9    2            A8    1            D7    0
 H                  4           B10    1            A9    2            D8    0
 H                  4           B11    1           A10    2            D9    0
 H                  5           B12    3           A11    2           D10    0
 H                  5           B13    3           A12    2           D11    0
 H                  6           B14    4           A13    1           D12    0
 H                  6           B15    4           A14    1           D13    0
 Sn                 1           B16    2           A15    7           D14    0
 C                 17           B17    1           A16    2           D15    0
 C                 18           B18   17           A17    1           D16    0
 C                 19           B19   18           A18   17           D17    0
 C                 20           B20   19           A19   18           D18    0
 C                 17           B21    1           A20    2           D19    0
 C                 22           B22   17           A21    1           D20    0
 C                 23           B23   22           A22   17           D21    0
 C                 24           B24   23           A23   22           D22    0
 C                 17           B25    1           A24    2           D23    0
 C                 26           B26   17           A25    1           D24    0
 C                 27           B27   26           A26   17           D25    0
 C                 28           B28   27           A27   26           D26    0
 H                  7           B29    2           A28    1           D27    0
 H                  7           B30    2           A29    1           D28    0
 H                  7           B31    2           A30    1           D29    0
 H                 18           B32   17           A31    1           D30    0
 H                 18           B33   17           A32    1           D31    0
 H                 19           B34   18           A33   17           D32    0
 H                 19           B35   18           A34   17           D33    0
 H                 20           B36   19           A35   18           D34    0
 H                 20           B37   19           A36   18           D35    0
 H                 21           B38   20           A37   19           D36    0
 H                 21           B39   20           A38   19           D37    0
 H                 21           B40   20           A39   19           D38    0
 H                 22           B41   17           A40    1           D39    0
 H                 22           B42   17           A41    1           D40    0
 H                 23           B43   22           A42   17           D41    0
 H                 23           B44   22           A43   17           D42    0
 H                 24           B45   23           A44   22           D43    0
 H                 24           B46   23           A45   22           D44    0
 H                 25           B47   24           A46   23           D45    0
 H                 25           B48   24           A47   23           D46    0
 H                 25           B49   24           A48   23           D47    0
 H                 26           B50   17           A49    1           D48    0
 H                 26           B51   17           A50    1           D49    0
 H                 27           B52   26           A51   17           D50    0
 H                 27           B53   26           A52   17           D51    0
 H                 28           B54   27           A53   26           D52    0
 H                 28           B55   27           A54   26           D53    0
 H                 29           B56   28           A55   27           D54    0
 H                 29           B57   28           A56   27           D55    0
 H                 29           B58   28           A57   27           D56    0

   B1             1.47674317
   B2             1.46935099
   B3             1.54485148
   B4             1.54216102
   B5             1.53702819
   B6             1.46501034
   B7             1.09797612
   B8             1.09812679
   B9             1.09607630
   B10            1.10109904
   B11            1.09739688
   B12            1.09751622
   B13            1.09805317
   B14            1.09943805
   B15            1.09674833
   B16            2.23487703
   B17            2.20755893
   B18            1.53918802
   B19            1.53875655
   B20            1.53479940
   B21            2.20797441
   B22            1.53925993
   B23            1.53855027
   B24            1.53476250
   B25            2.19976135
   B26            1.53828930
   B27            1.53846643
   B28            1.53482960
   B29            1.10445499
   B30            1.09545849
   B31            1.09591082
   B32            1.09703309
   B33            1.09772603
   B34            1.09847596
   B35            1.09872604
   B36            1.09843853
   B37            1.09833395
   B38            1.09583219
   B39            1.09659154
   B40            1.09661932
   B41            1.09840381
   B42            1.09814493
   B43            1.09858357
   B44            1.09894619
   B45            1.09849450
   B46            1.09844329
   B47            1.09586999
   B48            1.09660641
   B49            1.09665010
   B50            1.09764968
   B51            1.09839155
   B52            1.09886695
   B53            1.09893877
   B54            1.09832277
   B55            1.09847900
   B56            1.09592201
   B57            1.09668411
   B58            1.09671705
   A1           112.30144966
   A2           113.76734885
   A3           114.68270779
   A4           111.81587830
   A5           113.71318676
   A6           106.55325829
   A7           108.02106552
   A8           108.24854229
   A9           109.62904067
   A10          110.14752689
   A11          109.46991795
   A12          109.89536603
   A13          109.67391647
   A14          110.39028149
   A15          110.30340248
   A16          115.62011935
   A17          115.27811641
   A18          113.35632284
   A19          113.31388704
   A20          107.35777399
   A21          115.88441070
   A22          113.47826319
   A23          113.37873071
   A24          103.13149589
   A25          117.30975143
   A26          113.30806930
   A27          113.45010906
   A28          115.16436724
   A29          109.20736893
   A30          109.36296200
   A31          107.79874682
   A32          107.31190759
   A33          110.21808591
   A34          109.85593757
   A35          109.08548811
   A36          109.08232223
   A37          111.42780875
   A38          111.22950036
   A39          111.24226386
   A40          106.92960543
   A41          107.77868013
   A42          110.07895664
   A43          109.89034301
   A44          109.05571809
   A45          109.09529704
   A46          111.43026216
   A47          111.24895198
   A48          111.24783023
   A49          105.39994048
   A50          107.23277852
   A51          110.22569672
   A52          109.90942670
   A53          109.02151890
   A54          109.04980131
   A55          111.44710604
   A56          111.25531939
   A57          111.25130631
   D1           -50.81500183
   D2            52.30477495
   D3            52.06257369
   D4            79.42901952
   D5           -39.52139861
   D6           -68.89959336
   D7           176.16928654
   D8           -68.20724024
   D9           175.38528151
   D10         -176.11997214
   D11           67.11423603
   D12           67.65484688
   D13         -175.38972577
   D14         -147.43587483
   D15          -57.98655107
   D16         -164.20714401
   D17         -179.61014678
   D18         -179.58411082
   D19          179.40055824
   D20         -153.14378750
   D21          179.12387443
   D22         -179.90620919
   D23           62.56294342
   D24         -161.31257504
   D25          177.72517254
   D26         -179.93091995
   D27          -63.09066383
   D28           58.11415768
   D29          175.49949673
   D30          -41.31853476
   D31           72.81803537
   D32          -57.59579005
   D33           58.64547150
   D34          -57.30451168
   D35           58.15795542
   D36         -179.87867937
   D37          -59.78689294
   D38           60.03198969
   D39          -30.50266211
   D40           83.12205699
   D41          -58.80738075
   D42           57.26181398
   D43          -57.63003603
   D44           57.79071346
   D45          179.82945937
   D46          -60.08314823
   D47           59.73852930
   D48          -38.44695416
   D49           74.43146686
   D50          -60.26905509
   D51           55.99239266
   D52          -57.60153736
   D53           57.76732205
   D54         -179.99081519
   D55          -59.89206557
   D56           59.92891393

