$RunGaus
%mem=16000Mb
%nproc=8
# mp2/cc-pVTZ

2_1_Ad_N_Me_piperidine_eq_ax_single_point

0 1 
 n
 c   1 cn2     
 c    2 cc3         1 ccn3      
 c    3 cc4         2 ccc4          1 dih4   
 c    4 cc5         3 ccc5          2 dih5   
 c    5 cc6         4 ccc6          3 dih6   
 c    2 cc7         3 ccc7          4 dih7   
 c    7 cc8         2 ccc8          3 dih8   
 c    8 cc9         7 ccc9          2 dih9   
 c    9 cc10        8 ccc10         7 dih10  
 c   10 cc11        9 ccc11         8 dih11  
 c   11 cc12       10 ccc12         9 dih12  
 c   11 cc13       10 ccc13         9 dih13  
 c   13 cc14       11 ccc14        10 dih14  
 c   14 cc15       13 ccc15        11 dih15  
 c   14 cc16       15 ccc16         9 dih16  
 c    1 cn17        2 cnc17         7 dih17  
 h   10 hc18        9 hcc18         8 dih18  
 h   10 hc19        9 hcc19         8 dih19  
 h    9 hc20       10 hcc20        11 dih20  
 h    8 hc21        9 hcc21        10 dih21  
 h    8 hc22        9 hcc22        10 dih22  
 h   11 hc23       10 hcc23         9 dih23  
 h   12 hc24       11 hcc24        10 dih24  
 h   12 hc25       11 hcc25        10 dih25  
 h   15 hc26        9 hcc26        10 dih26  
 h   15 hc27        9 hcc27        10 dih27  
 h   14 hc28       15 hcc28         9 dih28  
 h   16 hc29        7 hcc29         8 dih29  
 h   16 hc30        7 hcc30         8 dih30  
 h   13 hc31       11 hcc31        10 dih31  
 h   13 hc32       11 hcc32        10 dih32  
 h    2 hc33        7 hcc33         8 dih33  
 h    3 hc34        2 hcc34         7 dih34  
 h    3 hc35        2 hcc35         7 dih35  
 h    4 hc36        3 hcc36         2 dih36  
 h    4 hc37        3 hcc37         2 dih37  
 h    5 hc38        4 hcc38         3 dih38  
 h    5 hc39        4 hcc39         3 dih39  
 h    6 hc40        5 hcc40         4 dih40  
 h    6 hc41        5 hcc41         4 dih41  
 h   17 hc42        1 hcn42         2 dih42  
 h   17 hc43        1 hcn43         2 dih43  
 h   17 hc44        1 hcn44         2 dih44  
 
cn2         1.485853
cc3         1.548014
ccn3        111.186
cc4         1.540712
ccc4        110.321
dih4        -57.982
cc5         1.537030
ccc5        111.422
dih5         52.821
cc6         1.540270
ccc6        110.426
dih6        -49.980
cc7         1.564522
ccc7        115.301
dih7        167.680
cc8         1.559552
ccc8        108.026
dih8        -71.912
cc9         1.542458
ccc9        111.694
dih9       -177.203
cc10        1.541656
ccc10       109.417
dih10        59.949
cc11        1.541670
ccc11       109.178
dih11       -59.212
cc12        1.542500
ccc12       109.802
dih12        59.834
cc13        1.543071
ccc13       109.378
dih13       -60.245
cc14        1.543064
ccc14       109.491
dih14        59.969
cc15        1.541222
ccc15       109.491
dih15       -59.960
cc16        1.544954
ccc16       109.662
dih16       -60.153
cn17        1.461714
cnc17       117.379
dih17        64.579
hc18        1.098586
hcc18       110.185
dih18       179.497
hc19        1.098554
hcc19       110.114
dih19        61.756
hc20        1.098187
hcc20       109.746
dih20      -178.809
hc21        1.098932
hcc21       109.526
dih21       -61.199
hc22        1.097310
hcc22       109.214
dih22      -177.811
hc23        1.098100
hcc23       109.603
dih23       179.626
hc24        1.094383
hcc24       109.851
dih24       176.794
hc25        1.098445
hcc25       110.163
dih25        60.426
hc26        1.098738
hcc26       110.184
dih26       178.389
hc27        1.098534
hcc27       110.203
dih27        60.632
hc28        1.098195
hcc28       109.579
dih28      -179.639
hc29        1.097480
hcc29       109.819
dih29        62.192
hc30        1.094713
hcc30       111.082
dih30       179.927
hc31        1.098556
hcc31       110.217
dih31       -61.258
hc32        1.098706
hcc32       110.076
dih32      -178.899
hc33        1.101187
hcc33       103.888
dih33        43.735
hc34        1.095655
hcc34       110.709
dih34        46.210
hc35        1.097225
hcc35       110.154
dih35       -71.205
hc36        1.100252
hcc36       108.752
dih36       -67.388
hc37        1.097023
hcc37       110.442
dih37       176.132
hc38        1.097778
hcc38       110.631
dih38      -171.708
hc39        1.098446
hcc39       109.730
dih39        71.057
hc40        1.099305
hcc40       109.067
dih40       -66.527
hc41        1.096411
hcc41       110.737
dih41       176.184
hc42        1.103943
hcn42       115.420
dih42        53.756
hc43        1.095042
hcn43       108.335
dih43       174.259
hc44        1.092041
hcn44       110.563
dih44       -68.682
 
 
 
 

