$RunGaus
%mem=16000Mb
%nproc=8
# mp2/cc-pVTZ

2_1_Ad_N_Me_piperidine_eq_eq_single_point

0 1 
 n
 c   1 cn2     
 c    2 cc3         1 ccn3      
 c    3 cc4         2 ccc4          1 dih4   
 c    4 cc5         3 ccc5          2 dih5   
 c    5 cc6         4 ccc6          3 dih6   
 c    2 cc7         3 ccc7          4 dih7   
 c    7 cc8         2 ccc8          3 dih8   
 c    8 cc9         7 ccc9          2 dih9   
 c    9 cc10        8 ccc10         7 dih10  
 c   10 cc11        9 ccc11         8 dih11  
 c   11 cc12       10 ccc12         9 dih12  
 c   11 cc13       10 ccc13         9 dih13  
 c   13 cc14       11 ccc14        10 dih14  
 c   14 cc15       13 ccc15        11 dih15  
 c   14 cc16       15 ccc16         9 dih16  
 c    1 cn17        2 cnc17         7 dih17  
 h   10 hc18        9 hcc18         8 dih18  
 h   10 hc19        9 hcc19         8 dih19  
 h    9 hc20       10 hcc20        11 dih20  
 h    8 hc21        9 hcc21        10 dih21  
 h    8 hc22        9 hcc22        10 dih22  
 h   11 hc23       10 hcc23         9 dih23  
 h   12 hc24       11 hcc24        10 dih24  
 h   12 hc25       11 hcc25        10 dih25  
 h   15 hc26        9 hcc26        10 dih26  
 h   15 hc27        9 hcc27        10 dih27  
 h   14 hc28       15 hcc28         9 dih28  
 h   16 hc29        7 hcc29         8 dih29  
 h   16 hc30        7 hcc30         8 dih30  
 h   13 hc31       11 hcc31        10 dih31  
 h   13 hc32       11 hcc32        10 dih32  
 h    2 hc33        7 hcc33         8 dih33  
 h    3 hc34        2 hcc34         7 dih34  
 h    3 hc35        2 hcc35         7 dih35  
 h    4 hc36        3 hcc36         2 dih36  
 h    4 hc37        3 hcc37         2 dih37  
 h    5 hc38        4 hcc38         3 dih38  
 h    5 hc39        4 hcc39         3 dih39  
 h    6 hc40        5 hcc40         4 dih40  
 h    6 hc41        5 hcc41         4 dih41  
 h   17 hc42        1 hcn42         2 dih42  
 h   17 hc43        1 hcn43         2 dih43  
 h   17 hc44        1 hcn44         2 dih44  
 
cn2         1.491967
cc3         1.548753
ccn3        108.688
cc4         1.530525
ccc4        114.363
dih4        -52.540
cc5         1.524190
ccc5        109.874
dih5         54.238
cc6         1.522920
ccc6        108.908
dih6        -54.022
cc7         1.587504
ccc7        111.516
dih7       -179.946
cc8         1.562435
ccc8        110.846
dih8        -35.485
cc9         1.544646
ccc9        112.028
dih9       -178.831
cc10        1.538767
ccc10       110.331
dih10        60.171
cc11        1.538523
ccc11       108.611
dih11       -58.568
cc12        1.543324
ccc12       109.410
dih12        59.573
cc13        1.543369
ccc13       109.669
dih13       -60.526
cc14        1.543537
ccc14       109.655
dih14        59.765
cc15        1.541375
ccc15       109.323
dih15       -59.261
cc16        1.544757
ccc16       109.823
dih16       -60.342
cn17        1.462365
cnc17       115.714
dih17       -57.363
hc18        1.098628
hcc18       110.265
dih18      -179.854
hc19        1.098580
hcc19       110.288
dih19        62.166
hc20        1.098232
hcc20       109.762
dih20      -178.114
hc21        1.099345
hcc21       109.722
dih21       -62.063
hc22        1.094097
hcc22       107.668
dih22      -178.244
hc23        1.098195
hcc23       109.790
dih23       178.994
hc24        1.090377
hcc24       108.651
dih24       173.443
hc25        1.099269
hcc25       109.560
dih25        57.735
hc26        1.098553
hcc26       110.182
dih26       177.603
hc27        1.098540
hcc27       110.197
dih27        59.791
hc28        1.098099
hcc28       109.658
dih28      -179.953
hc29        1.097643
hcc29       109.440
dih29        62.983
hc30        1.093236
hcc30       110.936
dih30       179.482
hc31        1.098541
hcc31       110.047
dih31       -61.518
hc32        1.098847
hcc32       110.095
dih32      -178.987
hc33        1.112356
hcc33       105.956
dih33        80.546
hc34        1.091544
hcc34       108.967
dih34        58.725
hc35        1.097941
hcc35       108.859
dih35       -57.900
hc36        1.099964
hcc36       109.633
dih36       -65.960
hc37        1.097058
hcc37       109.802
dih37       177.167
hc38        1.097075
hcc38       111.526
dih38      -174.840
hc39        1.097787
hcc39       110.135
dih39        65.891
hc40        1.111558
hcc40       108.842
dih40       -65.767
hc41        1.095275
hcc41       109.817
dih41       177.838
hc42        1.107392
hcn42       113.054
dih42       -55.516
hc43        1.088344
hcn43       111.936
dih43        67.318
hc44        1.094305
hcn44       108.529
dih44      -174.862
 
 
 
 

