$RunGaus
%mem=16000Mb
%nproc=8
# mp2/cc-pVTZ

2_2_Ad_N_Me_piperidine_eq_ax_single_point

0 1 
 c
 c   1 cc2     
 c    2 cc3         1 ccc3      
 c    3 cc4         2 ccc4          1 dih4   
 c    4 cc5         3 ccc5          2 dih5   
 c    5 cc6         4 ccc6          3 dih6   
 c    2 cc7         3 ccc7          4 dih7   
 c    7 cc8         2 ccc8          3 dih8   
 c    8 cc9         7 ccc9          2 dih9   
 c    6 cc10        5 ccc10         4 dih10  
 c   10 cc11        8 ccc11         9 dih11  
 c   11 cc12       10 ccc12         8 dih12  
 c   12 cc13       11 ccc13        10 dih13  
 c   13 cc14       12 ccc14        11 dih14  
 c   14 cc15       13 ccc15        12 dih15  
 n   15 nc16       14 ncc16        13 dih16  
 c   16 cn17       11 cnc17        12 dih17  
 h   11 hc18       12 hcc18        13 dih18  
 h   12 hc19       11 hcc19        16 dih19  
 h   12 hc20       11 hcc20        16 dih20  
 h   13 hc21       12 hcc21        11 dih21  
 h   13 hc22       12 hcc22        11 dih22  
 h   14 hc23       13 hcc23        12 dih23  
 h   14 hc24       13 hcc24        12 dih24  
 h   15 hc25       14 hcc25        13 dih25  
 h   15 hc26       14 hcc26        13 dih26  
 h   17 hc27       16 hcn27        11 dih27  
 h   17 hc28       16 hcn28        11 dih28  
 h   17 hc29       16 hcn29        11 dih29  
 h    3 hc30        4 hcc30         9 dih30  
 h    3 hc31        4 hcc31         9 dih31  
 h    4 hc32        3 hcc32         2 dih32  
 h    9 hc33        4 hcc33         3 dih33  
 h    9 hc34        4 hcc34         3 dih34  
 h    2 hc35        3 hcc35         4 dih35  
 h    7 hc36        2 hcc36         3 dih36  
 h    7 hc37        2 hcc37         3 dih37  
 h    5 hc38        4 hcc38         3 dih38  
 h    5 hc39        4 hcc39         3 dih39  
 h    6 hc40        5 hcc40         4 dih40  
 h   10 hc41       11 hcc41        12 dih41  
 h    1 hc42        2 hcc42         3 dih42  
 h    1 hc43        2 hcc43         3 dih43  
 h    8 hc44        9 hcc44         4 dih44  
 
cc2         1.543177
cc3         1.544188
ccc3        109.321
cc4         1.543767
ccc4        109.596
dih4        -59.609
cc5         1.542727
ccc5        109.414
dih5         59.702
cc6         1.544552
ccc6        109.888
dih6        -60.195
cc7         1.543907
ccc7        109.427
dih7         59.882
cc8         1.545298
ccc8        109.782
dih8        -60.192
cc9         1.546130
ccc9        108.761
dih9         59.913
cc10        1.556035
ccc10       109.045
dih10       -61.140
cc11        1.549012
ccc11       114.640
dih11       171.154
cc12        1.547752
ccc12       114.120
dih12       -55.134
cc13        1.540763
ccc13       111.033
dih13       177.327
cc14        1.536494
ccc14       111.740
dih14        51.799
cc15        1.539581
ccc15       110.076
dih15       -50.610
nc16        1.468237
ncc16       113.919
dih16        54.440
cn17        1.462286
cnc17       116.098
dih17       -72.595
hc18        1.099242
hcc18       106.461
dih18        58.269
hc19        1.095237
hcc19       110.402
dih19      -176.060
hc20        1.099091
hcc20       109.736
dih20        66.888
hc21        1.100557
hcc21       108.694
dih21       -68.385
hc22        1.097160
hcc22       110.278
dih22       175.325
hc23        1.097895
hcc23       110.644
dih23      -172.179
hc24        1.098401
hcc24       109.849
dih24        70.417
hc25        1.099811
hcc25       108.990
dih25       -65.632
hc26        1.096817
hcc26       110.868
dih26       176.990
hc27        1.104218
hcn27       115.259
dih27        59.322
hc28        1.095202
hcn28       108.425
dih28       179.869
hc29        1.093362
hcn29       110.434
dih29       -62.878
hc30        1.098772
hcc30       110.066
dih30       179.154
hc31        1.098985
hcc31       110.067
dih31        61.501
hc32        1.098264
hcc32       109.636
dih32      -179.838
hc33        1.098860
hcc33       110.050
dih33       -60.829
hc34        1.098675
hcc34       110.194
dih34      -178.428
hc35        1.098254
hcc35       109.583
dih35      -179.896
hc36        1.097800
hcc36       110.095
dih36       177.372
hc37        1.098915
hcc37       110.056
dih37        60.315
hc38        1.099088
hcc38       110.047
dih38       178.338
hc39        1.098878
hcc39       110.042
dih39        60.901
hc40        1.094639
hcc40       109.898
dih40       179.225
hc41        1.100260
hcc41       106.921
dih41        62.346
hc42        1.098803
hcc42       109.980
dih42       -60.310
hc43        1.096709
hcc43       110.437
dih43      -177.477
hc44        1.095878
hcc44       108.430
dih44      -179.135
 
 
 
 

