$RunGaus
%mem=16000Mb
%nproc=8
# mp2/cc-pVTZ

2_2_Ad_N_Me_piperidine_ax_ax_single_point

0 1 
 c
 c   1 cc2     
 c    2 cc3         1 ccc3      
 c    3 cc4         2 ccc4          1 dih4   
 c    4 cc5         3 ccc5          2 dih5   
 c    5 cc6         4 ccc6          3 dih6   
 c    2 cc7         3 ccc7          4 dih7   
 c    7 cc8         2 ccc8          3 dih8   
 c    8 cc9         7 ccc9          2 dih9   
 c    6 cc10        5 ccc10         4 dih10  
 c   10 cc11        8 ccc11         9 dih11  
 c   11 cc12       10 ccc12         8 dih12  
 c   12 cc13       11 ccc13        10 dih13  
 c   13 cc14       12 ccc14        11 dih14  
 c   14 cc15       13 ccc15        12 dih15  
 n   15 nc16       14 ncc16        13 dih16  
 c   16 cn17       11 cnc17        12 dih17  
 h   11 hc18       12 hcc18        13 dih18  
 h   12 hc19       11 hcc19        16 dih19  
 h   12 hc20       11 hcc20        16 dih20  
 h   13 hc21       12 hcc21        11 dih21  
 h   13 hc22       12 hcc22        11 dih22  
 h   14 hc23       13 hcc23        12 dih23  
 h   14 hc24       13 hcc24        12 dih24  
 h   15 hc25       14 hcc25        13 dih25  
 h   15 hc26       14 hcc26        13 dih26  
 h   17 hc27       16 hcn27        11 dih27  
 h   17 hc28       16 hcn28        11 dih28  
 h   17 hc29       16 hcn29        11 dih29  
 h    3 hc30        4 hcc30         9 dih30  
 h    3 hc31        4 hcc31         9 dih31  
 h    4 hc32        3 hcc32         2 dih32  
 h    9 hc33        4 hcc33         3 dih33  
 h    9 hc34        4 hcc34         3 dih34  
 h    2 hc35        3 hcc35         4 dih35  
 h    7 hc36        2 hcc36         3 dih36  
 h    7 hc37        2 hcc37         3 dih37  
 h    5 hc38        4 hcc38         3 dih38  
 h    5 hc39        4 hcc39         3 dih39  
 h    6 hc40        5 hcc40         4 dih40  
 h   10 hc41       11 hcc41        12 dih41  
 h    1 hc42        2 hcc42         3 dih42  
 h    1 hc43        2 hcc43         3 dih43  
 h    8 hc44        9 hcc44         4 dih44  
 
cc2         1.542516
cc3         1.544135
ccc3        109.372
cc4         1.543875
ccc4        109.666
dih4        -59.621
cc5         1.543204
ccc5        109.291
dih5         59.635
cc6         1.545453
ccc6        109.931
dih6        -60.141
cc7         1.542762
ccc7        109.189
dih7         59.706
cc8         1.546221
ccc8        110.059
dih8        -60.113
cc9         1.546054
ccc9        108.745
dih9         60.108
cc10        1.554680
ccc10       111.039
dih10       -59.896
cc11        1.556594
ccc11       114.404
dih11        68.889
cc12        1.552525
ccc12       113.683
dih12        60.448
cc13        1.539005
ccc13       112.584
dih13        72.766
cc14        1.537257
ccc14       110.548
dih14        53.359
cc15        1.540315
ccc15       110.301
dih15       -51.957
nc16        1.468844
ncc16       114.415
dih16        53.321
cn17        1.458807
cnc17       113.821
dih17       -78.672
hc18        1.095280
hcc18       107.463
dih18      -168.143
hc19        1.095053
hcc19       110.763
dih19      -177.481
hc20        1.098435
hcc20       108.178
dih20        66.856
hc21        1.098536
hcc21       110.113
dih21       -67.678
hc22        1.096938
hcc22       109.910
dih22       175.638
hc23        1.097675
hcc23       110.868
dih23      -173.576
hc24        1.098516
hcc24       109.466
dih24        69.080
hc25        1.098309
hcc25       108.895
dih25       -67.967
hc26        1.096273
hcc26       110.673
dih26       175.477
hc27        1.105330
hcn27       115.254
dih27        65.586
hc28        1.095681
hcn28       109.150
dih28      -173.286
hc29        1.095153
hcn29       109.375
dih29       -55.781
hc30        1.098712
hcc30       109.970
dih30       178.946
hc31        1.098753
hcc31       110.099
dih31        61.414
hc32        1.098190
hcc32       109.573
dih32       179.965
hc33        1.098738
hcc33       110.025
dih33       -60.231
hc34        1.097494
hcc34       110.174
dih34      -177.218
hc35        1.098163
hcc35       109.646
dih35       179.838
hc36        1.098531
hcc36       110.132
dih36       178.515
hc37        1.098691
hcc37       110.065
dih37        60.952
hc38        1.096978
hcc38       110.370
dih38       177.395
hc39        1.098619
hcc39       109.959
dih39        60.376
hc40        1.094031
hcc40       109.288
dih40      -179.769
hc41        1.099230
hcc41       107.491
dih41       -57.596
hc42        1.098764
hcc42       110.060
dih42       -61.095
hc43        1.098825
hcc43       110.063
dih43      -178.495
hc44        1.096330
hcc44       109.377
dih44      -178.310
 
 
 
 

