$RunGaus
%mem=16000Mb
%nproc=8
# mp2/cc-pVTZ

2_methylpiperidine_eq_single_point

0 1 
 c
 c   1 cc2     
 c    2 cc3         1 ccc3      
 n    3 nc4         2 ncc4          1 dih4   
 c    4 cn5         3 cnc5          2 dih5   
 c    5 cc6         4 ccn6          3 dih6   
 c    3 cc7         4 ccn7          5 dih7   
 h    4 hn8         3 hnc8          2 dih8   
 h    3 hc9         4 hcn9          5 dih9   
 h    5 hc10        4 hcn10         3 dih10  
 h    5 hc11        4 hcn11         3 dih11  
 h    2 hc12        3 hcc12         4 dih12  
 h    2 hc13        3 hcc13         4 dih13  
 h    6 hc14        5 hcc14         4 dih14  
 h    6 hc15        5 hcc15         4 dih15  
 h    1 hc16        2 hcc16         3 dih16  
 h    1 hc17        2 hcc17         3 dih17  
 h    7 hc18        3 hcc18         4 dih18  
 h    7 hc19        3 hcc19         4 dih19  
 h    7 hc20        3 hcc20         4 dih20  
 
cc2         1.537142
cc3         1.536865
ccc3        111.612
nc4         1.469574
ncc4        108.597
dih4         55.330
cn5         1.466044
cnc5        113.343
dih5        -60.850
cc6         1.532075
ccn6        109.786
dih6         61.813
cc7         1.528310
ccn7        109.718
dih7        176.142
hn8         1.016770
hnc8        109.948
dih8        175.277
hc9         1.110441
hcn9        110.573
dih9         56.748
hc10        1.108639
hcn10       112.042
dih10       -59.189
hc11        1.095598
hcn11       108.351
dih11      -177.434
hc12        1.098529
hcc12       108.262
dih12       -65.505
hc13        1.097368
hcc13       109.373
dih13       177.778
hc14        1.097022
hcc14       109.771
dih14      -178.129
hc15        1.097515
hcc15       108.709
dih15        64.554
hc16        1.099870
hcc16       109.187
dih16        67.576
hc17        1.096779
hcc17       110.339
dih17      -175.632
hc18        1.095308
hcc18       110.417
dih18        60.129
hc19        1.095295
hcc19       110.737
dih19      -179.481
hc20        1.096992
hcc20       111.228
dih20       -59.842
 
 
 
 

