$RunGaus
%mem=16000Mb
%nproc=8
# mp2/cc-pVTZ

2_propylamine_a_single_point

0 1 
 c
 c   1 cc2     
 n    2 nc3         1 ncc3      
 c    2 cc4         3 ccn4          1 dih4   
 h    1 hc5         2 hcc5          4 dih5   
 h    1 hc6         2 hcc6          4 dih6   
 h    1 hc7         2 hcc7          4 dih7   
 h    2 hc8         1 hcc8          5 dih8   
 h    4 hc9         2 hcc9          1 dih9   
 h    4 hc10        2 hcc10         1 dih10  
 h    4 hc11        2 hcc11         1 dih11  
 h    3 hn12        2 hnc12         1 dih12  
 h    3 hn13        2 hnc13         1 dih13  
 
cc2         1.530971
nc3         1.471855
ncc3        108.880
cc4         1.530967
ccn4        108.880
dih4        121.981
hc5         1.096729
hcc5        111.160
dih5       -179.986
hc6         1.095476
hcc6        110.314
dih6        -60.219
hc7         1.095363
hcc7        110.855
dih7         60.295
hc8         1.105631
hcc8        107.787
dih8         61.797
hc9         1.096730
hcc9        111.161
dih9        179.990
hc10        1.095362
hcc10       110.855
dih10       -60.291
hc11        1.095477
hcc11       110.313
dih11        60.223
hn12        1.017067
hnc12       111.113
dih12        59.297
hn13        1.017063
hnc13       111.113
dih13       178.739
 
 
 
 

