$RunGaus
%mem=16000Mb
%nproc=8
# mp2/cc-pVTZ

2_propylamine_g_single_point

0 1 
 c
 c   1 cc2     
 n    2 nc3         1 ncc3      
 c    2 cc4         3 ccn4          1 dih4   
 h    1 hc5         2 hcc5          4 dih5   
 h    1 hc6         2 hcc6          4 dih6   
 h    1 hc7         2 hcc7          4 dih7   
 h    2 hc8         1 hcc8          5 dih8   
 h    4 hc9         2 hcc9          1 dih9   
 h    4 hc10        2 hcc10         1 dih10  
 h    4 hc11        2 hcc11         1 dih11  
 h    3 hn12        2 hnc12         1 dih12  
 h    3 hn13        2 hnc13         1 dih13  
 
cc2         1.531386
nc3         1.471887
ncc3        108.807
cc4         1.538853
ccn4        114.088
dih4        125.202
hc5         1.093715
hcc5        110.565
dih5        177.752
hc6         1.098205
hcc6        110.660
dih6        -62.598
hc7         1.095124
hcc7        111.119
dih7         56.869
hc8         1.098788
hcc8        108.010
dih8         59.134
hc9         1.096320
hcc9        111.015
dih9       -179.679
hc10        1.096881
hcc10       111.468
dih10       -59.475
hc11        1.097724
hcc11       110.665
dih11        60.596
hn12        1.017221
hnc12       110.990
dih12       178.738
hn13        1.018653
hnc13       110.496
dih13       -62.679
 
 
 
 

