$RunGaus
%mem=16000Mb
%nproc=8
# mp2/cc-pVTZ

3_methylpiperidine_eq_single_point

0 1 
 c
 c   1 cc2     
 c    2 cc3         1 ccc3      
 n    3 nc4         2 ncc4          1 dih4   
 c    4 cn5         3 cnc5          2 dih5   
 c    5 cc6         4 ccn6          3 dih6   
 c    2 cc7         3 ccc7          4 dih7   
 h    4 hn8         3 hnc8          2 dih8   
 h    3 hc9         4 hcn9          5 dih9   
 h    5 hc10        4 hcn10         3 dih10  
 h    5 hc11        4 hcn11         3 dih11  
 h    2 hc12        3 hcc12         4 dih12  
 h    6 hc13        5 hcc13         4 dih13  
 h    6 hc14        5 hcc14         4 dih14  
 h    1 hc15        2 hcc15         3 dih15  
 h    1 hc16        2 hcc16         3 dih16  
 h    3 hc17        4 hcn17         5 dih17  
 h    7 hc18        2 hcc18         3 dih18  
 h    7 hc19        2 hcc19         3 dih19  
 h    7 hc20        2 hcc20         3 dih20  
 
cc2         1.540212
cc3         1.537153
ccc3        109.511
nc4         1.465064
ncc4        110.404
dih4         55.733
cn5         1.465047
cnc5        112.533
dih5        -62.055
cc6         1.532081
ccn6        109.472
dih6         61.392
cc7         1.532609
ccc7        111.560
dih7       -179.708
hn8         1.015579
hnc8        110.397
dih8        173.931
hc9         1.096225
hcn9        108.459
dih9        177.271
hc10        1.109106
hcn10       112.091
dih10       -59.481
hc11        1.095587
hcn11       108.518
dih11      -177.905
hc12        1.099452
hcc12       106.878
dih12       -61.022
hc13        1.096997
hcc13       109.807
dih13      -177.858
hc14        1.097427
hcc14       108.662
dih14        64.903
hc15        1.101107
hcc15       108.708
dih15        68.542
hc16        1.097624
hcc16       110.041
dih16      -175.187
hc17        1.109928
hcn17       112.155
dih17        58.969
hc18        1.096426
hcc18       111.443
dih18        58.599
hc19        1.095899
hcc19       111.019
dih19       178.633
hc20        1.097320
hcc20       111.204
dih20       -61.626
 
 
 
 

