$RunGaus
%mem=16000Mb
%nproc=8
# mp2/cc-pVTZ

3_methylpiperidine_ax_single_point

0 1 
 c
 c   1 cc2     
 c    2 cc3         1 ccc3      
 n    3 nc4         2 ncc4          1 dih4   
 c    4 cn5         3 cnc5          2 dih5   
 c    5 cc6         4 ccn6          3 dih6   
 c    2 cc7         3 ccc7          4 dih7   
 h    4 hn8         3 hnc8          2 dih8   
 h    3 hc9         4 hcn9          5 dih9   
 h    5 hc10        4 hcn10         3 dih10  
 h    5 hc11        4 hcn11         3 dih11  
 h    2 hc12        3 hcc12         4 dih12  
 h    6 hc13        5 hcc13         4 dih13  
 h    6 hc14        5 hcc14         4 dih14  
 h    1 hc15        2 hcc15         3 dih15  
 h    1 hc16        2 hcc16         3 dih16  
 h    3 hc17        4 hcn17         5 dih17  
 h    7 hc18        2 hcc18         3 dih18  
 h    7 hc19        2 hcc19         3 dih19  
 h    7 hc20        2 hcc20         3 dih20  
 
cc2         1.545948
cc3         1.541367
ccc3        108.952
nc4         1.465909
ncc4        110.455
dih4         55.764
cn5         1.465452
cnc5        112.269
dih5        -63.045
cc6         1.533077
ccn6        109.418
dih6         62.123
cc7         1.536762
ccc7        112.027
dih7        -69.856
hn8         1.015322
hnc8        110.452
dih8        172.944
hc9         1.096159
hcn9        108.442
dih9        176.081
hc10        1.109526
hcn10       111.969
dih10       -58.660
hc11        1.095589
hcn11       108.614
dih11      -177.083
hc12        1.099181
hcc12       107.138
dih12       172.095
hc13        1.097001
hcc13       109.765
dih13      -177.203
hc14        1.096483
hcc14       108.797
dih14        65.863
hc15        1.099660
hcc15       108.590
dih15        68.632
hc16        1.097351
hcc16       110.112
dih16      -175.099
hc17        1.108716
hcn17       111.823
dih17        57.885
hc18        1.096327
hcc18       110.903
dih18       178.986
hc19        1.096455
hcc19       110.709
dih19       -61.562
hc20        1.093377
hcc20       111.527
dih20        58.071
 
 
 
 

