$RunGaus
%mem=16000Mb
%nproc=8
# mp2/cc-pVTZ

3_OH_hexahydropyrimidine_single_point

0 1 
 c
 n   1 nc2     
 c    2 cn3         1 cnc3      
 c    3 cc4         2 ccn4          1 dih4   
 c    4 cc5         3 ccc5          2 dih5   
 n    5 nc6         4 ncc6          3 dih6   
 o    4 oc7         3 occ7          2 dih7   
 h    7 ho8         4 hoc8          3 dih8   
 h    6 hn9         5 hnc9          4 dih9   
 h    2 hn10        3 hnc10         4 dih10  
 h    4 hc11        3 hcc11         2 dih11  
 h    3 hc12        4 hcc12         5 dih12  
 h    3 hc13        4 hcc13         5 dih13  
 h    5 hc14        4 hcc14         3 dih14  
 h    5 hc15        4 hcc15         3 dih15  
 h    1 hc16        2 hcn16         3 dih16  
 h    1 hc17        2 hcn17         3 dih17  
 
nc2         1.464000
cn3         1.465118
cnc3        111.614
cc4         1.535990
ccn4        113.523
dih4        -50.840
cc5         1.540871
ccc5        109.637
dih5         50.649
nc6         1.464562
ncc6        113.504
dih6        -50.927
oc7         1.437390
occ7        106.486
dih7        -69.876
ho8         0.966031
hoc8        109.214
dih8       -177.429
hn9         1.017941
hnc9        109.202
dih9        -69.618
hn10        1.017605
hnc10       109.117
dih10        70.637
hc11        1.101569
hcc11       109.511
dih11       171.430
hc12        1.098651
hcc12       108.462
dih12       -69.771
hc13        1.094374
hcc13       109.684
dih13       173.074
hc14        1.097760
hcc14       110.558
dih14      -173.757
hc15        1.099478
hcc15       108.580
dih15        69.551
hc16        1.093646
hcn16       108.828
dih16       174.863
hc17        1.098409
hcn17       107.549
dih17       -68.618
 
 
 
 

