$RunGaus
%mem=16000Mb
%nproc=8
# mp2/cc-pVTZ

3b_aminotropane_1c_single_point

0 1 
 c
 c   1 cc2     
 n    2 nc3         1 ncc3      
 c    3 cn4         2 cnc4          1 dih4   
 c    4 cc5         3 ccn5          2 dih5   
 c    4 cc6         3 ccn6          2 dih6   
 c    6 cc7         4 ccc7          3 dih7   
 c    7 cc8         6 ccc8          4 dih8   
 c    3 cn9         2 cnc9          8 dih9   
 n    7 nc10        8 ncc10         2 dih10  
 h    2 hc11        3 hcn11         4 dih11  
 h    4 hc12        3 hcn12         2 dih12  
 h    8 hc13        2 hcc13         3 dih13  
 h    8 hc14        2 hcc14         3 dih14  
 h    6 hc15        4 hcc15         3 dih15  
 h    6 hc16        4 hcc16         3 dih16  
 h    7 hc17        8 hcc17         2 dih17  
 h    9 hc18        3 hcn18         2 dih18  
 h    9 hc19        3 hcn19         2 dih19  
 h    9 hc20        3 hcn20         2 dih20  
 h   10 hn21        7 hnc21         8 dih21  
 h   10 hn22        7 hnc22         8 dih22  
 h    5 hc23        4 hcc23         3 dih23  
 h    5 hc24        4 hcc24         3 dih24  
 h    1 hc25        2 hcc25         3 dih25  
 h    1 hc26        2 hcc26         3 dih26  
 
cc2         1.548741
nc3         1.473308
ncc3        100.703
cn4         1.473303
cnc4        102.783
dih4         51.119
cc5         1.548744
ccn5        100.703
dih5        -51.118
cc6         1.547614
ccn6        111.872
dih6         68.380
cc7         1.541413
ccc7        111.756
dih7        -58.357
cc8         1.541410
ccc8        111.168
dih8         43.065
cn9         1.453987
cnc9        117.892
dih9         63.137
nc10        1.472829
ncc10       109.680
dih10      -164.532
hc11        1.096378
hcn11       109.730
dih11       169.593
hc12        1.096378
hcn12       109.731
dih12      -169.592
hc13        1.099047
hcc13       109.833
dih13      -179.372
hc14        1.096786
hcc14       109.871
dih14       -62.283
hc15        1.096788
hcc15       109.871
dih15        62.279
hc16        1.099047
hcc16       109.834
dih16       179.369
hc17        1.103203
hcc17       107.556
dih17        74.438
hc18        1.102631
hcn18       115.485
dih18       -62.142
hc19        1.095694
hcn19       108.935
dih19        59.294
hc20        1.095693
hcn20       108.935
dih20       176.422
hn21        1.018125
hnc21       110.632
dih21      -177.982
hn22        1.018125
hnc22       110.632
dih22       -59.670
hc23        1.093463
hcc23       109.862
dih23       -88.325
hc24        1.094948
hcc24       112.114
dih24       152.096
hc25        1.093462
hcc25       109.863
dih25        88.323
hc26        1.094948
hcc26       112.114
dih26      -152.098
 
 
 
 

