$RunGaus
%mem=16000Mb
%nproc=8
# mp2/cc-pVTZ

3b_aminotropane_2a_single_point

1 1 
 c
 c   1 cc2     
 n    2 nc3         1 ncc3      
 c    3 cn4         2 cnc4          1 dih4   
 c    4 cc5         3 ccn5          2 dih5   
 c    4 cc6         3 ccn6          2 dih6   
 c    6 cc7         4 ccc7          3 dih7   
 c    7 cc8         6 ccc8          4 dih8   
 c    3 cn9         2 cnc9          8 dih9   
 n    7 nc10        8 ncc10         2 dih10  
 h    2 hc11        3 hcn11         4 dih11  
 h    4 hc12        3 hcn12         2 dih12  
 h    8 hc13        2 hcc13         3 dih13  
 h    8 hc14        2 hcc14         3 dih14  
 h    6 hc15        4 hcc15         3 dih15  
 h    6 hc16        4 hcc16         3 dih16  
 h    7 hc17        8 hcc17         2 dih17  
 h    9 hc18        3 hcn18         2 dih18  
 h    9 hc19        3 hcn19         2 dih19  
 h    9 hc20        3 hcn20         2 dih20  
 h   10 hn21        7 hnc21         8 dih21  
 h   10 hn22        7 hnc22         8 dih22  
 h    5 hc23        4 hcc23         3 dih23  
 h    5 hc24        4 hcc24         3 dih24  
 h    1 hc25        2 hcc25         3 dih25  
 h    1 hc26        2 hcc26         3 dih26  
 h    3 hn27        2 hnc27         8 dih27  
 
cc2         1.542926
nc3         1.534718
ncc3        102.044
cn4         1.534691
cnc4        101.421
dih4         46.494
cc5         1.542928
ccn5        102.045
dih5        -46.493
cc6         1.533162
ccn6        106.649
dih6         73.945
cc7         1.544199
ccc7        112.853
dih7        -61.069
cc8         1.544203
ccc8        110.724
dih8         44.514
cn9         1.498912
cnc9        114.823
dih9        161.629
nc10        1.460737
ncc10       108.867
dih10      -164.162
hc11        1.092489
hcn11       108.034
dih11       166.492
hc12        1.092489
hcn12       108.035
dih12      -166.491
hc13        1.095544
hcc13       108.261
dih13      -176.428
hc14        1.098607
hcc14       109.950
dih14       -60.620
hc15        1.098607
hcc15       109.950
dih15        60.619
hc16        1.095544
hcc16       108.262
dih16       176.427
hc17        1.102588
hcc17       107.861
dih17        73.290
hc18        1.088470
hcn18       109.575
dih18        58.516
hc19        1.090955
hcn19       108.750
dih19       178.622
hc20        1.090956
hcn20       108.750
dih20       -61.590
hn21        1.017305
hnc21       111.637
dih21      -179.429
hn22        1.017307
hnc22       111.637
dih22       -59.770
hc23        1.092756
hcc23       111.010
dih23       -92.011
hc24        1.091941
hcc24       110.095
dih24       150.004
hc25        1.092755
hcc25       111.010
dih25        92.009
hc26        1.091942
hcc26       110.095
dih26      -150.006
hn27        1.024273
hnc27       108.963
dih27        40.889
 
 
 
 

