$RunGaus
%mem=16000Mb
%nproc=8
# mp2/cc-pVTZ

3b_aminotropane_2b_single_point

1 1 
 c
 c   1 cc2     
 n    2 nc3         1 ncc3      
 c    3 cn4         2 cnc4          1 dih4   
 c    4 cc5         3 ccn5          2 dih5   
 c    4 cc6         3 ccn6          2 dih6   
 c    6 cc7         4 ccc7          3 dih7   
 c    7 cc8         6 ccc8          4 dih8   
 c    3 cn9         2 cnc9          8 dih9   
 n    7 nc10        8 ncc10         2 dih10  
 h    2 hc11        3 hcn11         4 dih11  
 h    4 hc12        3 hcn12         2 dih12  
 h    8 hc13        2 hcc13         3 dih13  
 h    8 hc14        2 hcc14         3 dih14  
 h    6 hc15        4 hcc15         3 dih15  
 h    6 hc16        4 hcc16         3 dih16  
 h    7 hc17        8 hcc17         2 dih17  
 h    9 hc18        3 hcn18         2 dih18  
 h    9 hc19        3 hcn19         2 dih19  
 h    9 hc20        3 hcn20         2 dih20  
 h   10 hn21        7 hnc21         8 dih21  
 h   10 hn22        7 hnc22         8 dih22  
 h    5 hc23        4 hcc23         3 dih23  
 h    5 hc24        4 hcc24         3 dih24  
 h    1 hc25        2 hcc25         3 dih25  
 h    1 hc26        2 hcc26         3 dih26  
 h    3 hn27        2 hnc27         8 dih27  
 
cc2         1.543004
nc3         1.526967
ncc3        102.463
cn4         1.526931
cnc4        101.061
dih4         46.612
cc5         1.543021
ccn5        102.464
dih5        -46.608
cc6         1.556924
ccn6        107.238
dih6         73.867
cc7         1.544093
ccc7        112.672
dih7        -14.598
cc8         1.544087
ccc8        110.961
dih8        -43.762
cn9         1.492058
cnc9        115.162
dih9        161.355
nc10        1.487101
ncc10       108.017
dih10       -74.456
hc11        1.091706
hcn11       108.215
dih11       166.087
hc12        1.091707
hcn12       108.216
dih12      -166.082
hc13        1.094937
hcc13       110.162
dih13      -107.655
hc14        1.093510
hcc14       108.941
dih14       136.034
hc15        1.093509
hcc15       108.940
dih15      -136.045
hc16        1.094937
hcc16       110.162
dih16       107.644
hc17        1.096332
hcc17       109.004
dih17       163.818
hc18        1.089580
hcn18       110.500
dih18        58.534
hc19        1.091153
hcn19       108.653
dih19       178.946
hc20        1.091154
hcn20       108.653
dih20       -61.878
hn21        1.018576
hnc21       111.196
dih21       -60.589
hn22        1.018575
hnc22       111.195
dih22      -179.320
hc23        1.093050
hcc23       110.877
dih23       -91.370
hc24        1.091770
hcc24       110.525
dih24       150.602
hc25        1.093052
hcc25       110.877
dih25        91.359
hc26        1.091770
hcc26       110.526
dih26      -150.611
hn27        1.054114
hnc27       107.328
dih27        38.406
 
 
 
 

