$RunGaus
%mem=16000Mb
%nproc=8
# mp2/cc-pVTZ

3b_aminotropane_1a_single_point

0 1 
 c
 c   1 cc2     
 n    2 nc3         1 ncc3      
 c    3 cn4         2 cnc4          1 dih4   
 c    4 cc5         3 ccn5          2 dih5   
 c    4 cc6         3 ccn6          2 dih6   
 c    6 cc7         4 ccc7          3 dih7   
 c    7 cc8         6 ccc8          4 dih8   
 c    3 cn9         2 cnc9          8 dih9   
 n    7 nc10        8 ncc10         2 dih10  
 h    2 hc11        3 hcn11         4 dih11  
 h    4 hc12        3 hcn12         2 dih12  
 h    8 hc13        2 hcc13         3 dih13  
 h    8 hc14        2 hcc14         3 dih14  
 h    6 hc15        4 hcc15         3 dih15  
 h    6 hc16        4 hcc16         3 dih16  
 h    7 hc17        8 hcc17         2 dih17  
 h    9 hc18        3 hcn18         2 dih18  
 h    9 hc19        3 hcn19         2 dih19  
 h    9 hc20        3 hcn20         2 dih20  
 h   10 hn21        7 hnc21         8 dih21  
 h   10 hn22        7 hnc22         8 dih22  
 h    5 hc23        4 hcc23         3 dih23  
 h    5 hc24        4 hcc24         3 dih24  
 h    1 hc25        2 hcc25         3 dih25  
 h    1 hc26        2 hcc26         3 dih26  
 
cc2         1.562689
nc3         1.478448
ncc3        104.976
cn4         1.478441
cnc4        101.583
dih4         44.509
cc5         1.562690
ccn5        104.977
dih5        -44.508
cc6         1.539550
ccn6        107.346
dih6         75.382
cc7         1.539586
ccc7        111.574
dih7        -61.101
cc8         1.539588
ccc8        110.735
dih8         43.827
cn9         1.461456
cnc9        113.854
dih9        161.799
nc10        1.471695
ncc10       109.859
dih10      -165.356
hc11        1.094977
hcn11       109.824
dih11       165.524
hc12        1.094978
hcn12       109.824
dih12      -165.523
hc13        1.099075
hcc13       110.116
dih13      -176.678
hc14        1.095432
hcc14       108.604
dih14       -58.760
hc15        1.095432
hcc15       108.605
dih15        58.760
hc16        1.099074
hcc16       110.116
dih16       176.678
hc17        1.103626
hcc17       107.608
dih17        73.528
hc18        1.105175
hcn18       114.856
dih18        57.910
hc19        1.094751
hcn19       109.139
dih19       179.198
hc20        1.094753
hcn20       109.139
dih20       -63.377
hn21        1.017865
hnc21       110.685
dih21      -178.177
hn22        1.017866
hnc22       110.684
dih22       -59.768
hc23        1.094667
hcc23       110.584
dih23       -91.918
hc24        1.094936
hcc24       112.011
dih24       148.968
hc25        1.094667
hcc25       110.584
dih25        91.918
hc26        1.094934
hcc26       112.011
dih26      -148.970
 
 
 
 

