$RunGaus
%mem=16000Mb
%nproc=8
# mp2/cc-pVTZ

butanediamine_H+-gGGG_single_point

1 1 
 c
 c   1 cc2     
 c    2 cc3         1 ccc3      
 c    3 cc4         2 ccc4          1 dih4   
 n    4 nc5         3 ncc5          2 dih5   
 n    1 nc6         2 ncc6          3 dih6   
 h    1 hc7         2 hcc7          3 dih7   
 h    1 hc8         2 hcc8          3 dih8   
 h    6 hn9         1 hnc9          2 dih9   
 h    6 hn10        1 hnc10         2 dih10  
 h    6 hn11        1 hnc11         2 dih11  
 h    4 hc12        3 hcc12         2 dih12  
 h    4 hc13        3 hcc13         2 dih13  
 h    5 hn14        4 hnc14         3 dih14  
 h    5 hn15        4 hnc15         3 dih15  
 h    2 hc16        1 hcc16         6 dih16  
 h    2 hc17        1 hcc17         6 dih17  
 h    3 hc18        2 hcc18         1 dih18  
 h    3 hc19        2 hcc19         1 dih19  
 
cc2         1.530709
cc3         1.544274
ccc3        117.129
cc4         1.533393
ccc4        117.152
dih4         75.832
nc5         1.493232
ncc5        112.260
dih5        -69.627
nc6         1.510132
ncc6        111.855
dih6        -70.452
hc7         1.092446
hcc7        111.000
dih7        168.953
hc8         1.093670
hcc8        111.209
dih8         48.501
hn9         1.022565
hnc9        111.648
dih9        172.408
hn10        1.023033
hnc10       110.865
dih10       -68.231
hn11        1.133297
hnc11       107.794
dih11        50.777
hc12        1.095163
hcc12       109.354
dih12       167.485
hc13        1.095607
hcc13       110.230
dih13        49.987
hn14        1.021011
hnc14       109.872
dih14       -70.913
hn15        1.020108
hnc15       110.269
dih15       172.990
hc16        1.099388
hcc16       109.688
dih16        56.063
hc17        1.095522
hcc17       105.705
dih17       169.257
hc18        1.095292
hcc18       107.398
dih18      -164.237
hc19        1.099275
hcc19       109.758
dih19       -50.009
 
 
 
 

