$RunGaus
%mem=16000Mb
%nproc=8
# mp2/cc-pVTZ

butanediamine_H+_tTTT_single_point

1 1 
 c
 c   1 cc2     
 c    2 cc3         1 ccc3      
 c    3 cc4         2 ccc4          1 dih4   
 n    4 nc5         3 ncc5          2 dih5   
 n    1 nc6         2 ncc6          3 dih6   
 h    1 hc7         2 hcc7          3 dih7   
 h    1 hc8         2 hcc8          3 dih8   
 h    6 hn9         1 hnc9          2 dih9   
 h    6 hn10        1 hnc10         2 dih10  
 h    6 hn11        1 hnc11         2 dih11  
 h    4 hc12        3 hcc12         2 dih12  
 h    4 hc13        3 hcc13         2 dih13  
 h    5 hn14        4 hnc14         3 dih14  
 h    5 hn15        4 hnc15         3 dih15  
 h    2 hc16        1 hcc16         6 dih16  
 h    2 hc17        1 hcc17         6 dih17  
 h    3 hc18        2 hcc18         1 dih18  
 h    3 hc19        2 hcc19         1 dih19  
 
cc2         1.522043
cc3         1.540994
ccc3        111.369
cc4         1.547188
ccc4        111.948
dih4       -180.000
nc5         1.449732
ncc5        116.236
dih5       -180.000
nc6         1.535256
ncc6        110.944
dih6       -179.999
hc7         1.092498
hcc7        112.512
dih7         61.752
hc8         1.092498
hcc8        112.512
dih8        -61.751
hn9         1.026014
hnc9        110.928
dih9         59.523
hn10        1.025973
hnc10       112.068
dih10       179.999
hn11        1.026014
hnc11       110.928
dih11       -59.524
hc12        1.097540
hcc12       108.955
dih12        57.824
hc13        1.097540
hcc13       108.955
dih13       -57.823
hn14        1.014545
hnc14       113.481
dih14       -62.794
hn15        1.014546
hnc15       113.481
dih15        62.792
hc16        1.098895
hcc16       109.769
dih16       -58.842
hc17        1.098895
hcc17       109.769
dih17        58.844
hc18        1.097935
hcc18       109.709
dih18       -58.606
hc19        1.097935
hcc19       109.709
dih19        58.607
 
 
 
 

