$RunGaus
%mem=16000Mb
%nproc=8
# mp2/cc-pVTZ

butanediamine_gGGG_single_point

0 1 
 c
 c   1 cc2     
 c    2 cc3         1 ccc3      
 c    3 cc4         2 ccc4          1 dih4   
 n    4 nc5         3 ncc5          2 dih5   
 n    1 nc6         2 ncc6          3 dih6   
 h    1 hc7         2 hcc7          3 dih7   
 h    1 hc8         2 hcc8          3 dih8   
 h    6 hn9         1 hnc9          2 dih9   
 h    6 hn10        1 hnc10         2 dih10  
 h    4 hc11        3 hcc11         2 dih11  
 h    4 hc12        3 hcc12         2 dih12  
 h    5 hn13        4 hnc13         3 dih13  
 h    5 hn14        4 hnc14         3 dih14  
 h    2 hc15        1 hcc15         6 dih15  
 h    2 hc16        1 hcc16         6 dih16  
 h    3 hc17        2 hcc17         1 dih17  
 h    3 hc18        2 hcc18         1 dih18  
 
cc2         1.537714
cc3         1.542852
ccc3        118.086
cc4         1.535031
ccc4        118.001
dih4         72.246
nc5         1.465589
ncc5        112.516
dih5        -76.349
nc6         1.475013
ncc6        112.560
dih6        -79.503
hc7         1.102249
hcc7        108.291
dih7        156.256
hc8         1.096302
hcc8        109.502
dih8         40.000
hn9         1.017013
hnc9        110.684
dih9        176.731
hn10        1.017765
hnc10       110.402
dih10       -65.187
hc11        1.096991
hcc11       107.784
dih11       165.182
hc12        1.107024
hcc12       108.593
dih12        50.277
hn13        1.016308
hnc13       110.589
dih13      -171.887
hn14        1.021919
hnc14       109.276
dih14        68.901
hc15        1.101184
hcc15       108.833
dih15        46.186
hc16        1.098067
hcc16       106.797
dih16       159.696
hc17        1.098708
hcc17       106.751
dih17      -166.979
hc18        1.098310
hcc18       109.428
dih18       -51.957
 
 
 
 

