$RunGaus
%mem=16000Mb
%nproc=8
# mp2/cc-pVTZ

EtdiMeNH+_a_single_point

1 1 
 c
 c   1 cc2     
 n    2 nc3         1 ncc3      
 c    3 cn4         2 cnc4          1 dih4   
 c    3 cn5         2 cnc5          1 dih5   
 h    1 hc6         2 hcc6          3 dih6   
 h    1 hc7         2 hcc7          3 dih7   
 h    1 hc8         2 hcc8          3 dih8   
 h    2 hc9         3 hcn9          5 dih9   
 h    2 hc10        3 hcn10         5 dih10  
 h    5 hc11        3 hcn11         2 dih11  
 h    5 hc12        3 hcn12         2 dih12  
 h    5 hc13        3 hcn13         2 dih13  
 h    3 hn14        2 hnc14         1 dih14  
 h    4 hc15        3 hcn15         2 dih15  
 h    4 hc16        3 hcn16         2 dih16  
 h    4 hc17        3 hcn17         2 dih17  
 
cc2         1.521680
nc3         1.527190
ncc3        113.242
cn4         1.506110
cnc4        113.094
dih4        -65.216
cn5         1.506466
cnc5        111.358
dih5        168.764
hc6         1.093550
hcc6        108.057
dih6       -173.855
hc7         1.095537
hcc7        111.956
dih7        -56.185
hc8         1.092323
hcc8        113.107
dih8         67.695
hc9         1.092538
hcn9        105.582
dih9         47.180
hc10        1.093177
hcn10       105.954
dih10       -67.631
hc11        1.090343
hcn11       109.027
dih11      -177.357
hc12        1.090234
hcn12       109.018
dih12       -57.089
hc13        1.090722
hcn13       108.460
dih13        62.810
hn14        1.025514
hnc14       106.557
dih14        52.165
hc15        1.088537
hcn15       109.491
dih15        58.707
hc16        1.090852
hcn16       108.357
dih16       -61.605
hc17        1.090314
hcn17       108.749
dih17       178.765
 
 
 
 

