$RunGaus
%mem=16000Mb
%nproc=8
# mp2/cc-pVTZ

ethanediamineH+_Tg_single_point

1 1 
 c
 n   1 nc2     
 c    1 cc3         2 ccn3      
 n    3 nc4         1 ncc4          2 dih4   
 h    1 hc5         3 hcc5          4 dih5   
 h    1 hc6         3 hcc6          4 dih6   
 h    3 hc7         1 hcc7          2 dih7   
 h    3 hc8         1 hcc8          2 dih8   
 h    4 hn9         3 hnc9          1 dih9   
 h    2 hn10        1 hnc10         3 dih10  
 h    4 hn11        3 hnc11         1 dih11  
 h    2 hn12        1 hnc12         3 dih12  
 h    2 hn13        1 hnc13         3 dih13  
 
nc2         1.532342
cc3         1.535375
ccn3        111.296
nc4         1.450671
ncc4        107.065
dih4       -179.277
hc5         1.091915
hcc5        111.748
dih5        -60.624
hc6         1.090885
hcc6        111.202
dih6         61.579
hc7         1.102735
hcc7        109.856
dih7        -54.903
hc8         1.096326
hcc8        109.338
dih8         62.334
hn9         1.013856
hnc9        113.606
dih9         94.921
hn10        1.025545
hnc10       111.557
dih10       179.105
hn11        1.012810
hnc11       113.259
dih11      -140.042
hn12        1.026131
hnc12       111.355
dih12        58.879
hn13        1.026045
hnc13       111.290
dih13       -60.836
 
 
 
 

