$RunGaus
%mem=16000Mb
%nproc=8
# mp2/cc-pVTZ

ethylamine_g_single_point

0 1 
 c
 c   1 cc2     
 n    2 nc3         1 ncc3      
 h    2 hc4         1 hcc4          3 dih4   
 h    2 hc5         4 hch5          1 dih5   
 h    1 hc6         2 hcc6          3 dih6   
 h    1 hc7         2 hcc7          3 dih7   
 h    3 hn8         2 hnc8          1 dih8   
 h    1 hc9         2 hcc9          3 dih9   
 h    3 hn10        2 hnc10         1 dih10  
 
cc2         1.527473
nc3         1.469619
ncc3        110.540
hc4         1.096381
hcc4        109.466
dih4       -118.068
hc5         1.103891
hch5        106.759
dih5        118.132
hc6         1.095464
hcc6        110.890
dih6        178.233
hc7         1.097162
hcc7        110.991
dih7        -62.255
hn8         1.017191
hnc8        110.815
dih8         63.741
hc9         1.094360
hcc9        110.510
dih9         57.476
hn10        1.016140
hnc10       111.296
dih10      -176.882
 
 
 
 

