$RunGaus
%mem=16000Mb
%nproc=8
# mp2/cc-pVTZ

ethylamine_a_single_point

0 1 
 c
 c   1 cc2     
 n    2 nc3         1 ncc3      
 h    2 hc4         1 hcc4          3 dih4   
 h    2 hc5         4 hch5          1 dih5   
 h    1 hc6         2 hcc6          3 dih6   
 h    1 hc7         2 hcc7          3 dih7   
 h    3 hn8         2 hnc8          1 dih8   
 h    1 hc9         2 hcc9          3 dih9   
 h    3 hn10        2 hnc10         1 dih10  
 
cc2         1.535170
nc3         1.466354
ncc3        116.101
hc4         1.096709
hcc4        109.594
dih4       -121.937
hc5         1.096709
hch5        106.164
dih5        118.281
hc6         1.097100
hcc6        111.167
dih6        179.999
hc7         1.096817
hcc7        111.030
dih7        -59.938
hn8         1.017079
hnc8        111.029
dih8        -59.552
hc9         1.096816
hcc9        111.029
dih9         59.936
hn10        1.017077
hnc10       111.029
dih10        59.575
 
 
 
 

