$RunGaus
%mem=16000Mb
%nproc=8
# mp2/cc-pVTZ

ethylenediamine_g+_g+_g+_single_point

0 1 
 c
 n   1 nc2     
 c    1 cc3         2 ccn3      
 n    3 nc4         1 ncc4          2 dih4   
 h    1 hc5         3 hcc5          4 dih5   
 h    1 hc6         3 hcc6          4 dih6   
 h    3 hc7         1 hcc7          2 dih7   
 h    3 hc8         1 hcc8          2 dih8   
 h    2 hn9         1 hnc9          3 dih9   
 h    2 hn10        1 hnc10         3 dih10  
 h    4 hn11        3 hnc11         1 dih11  
 h    4 hn12        3 hnc12         1 dih12  
 
nc2         1.470661
cc3         1.528801
ccn3        110.428
nc4         1.470660
ncc4        110.431
dih4         57.155
hc5         1.096271
hcc5        108.695
dih5        175.622
hc6         1.101973
hcc6        108.796
dih6        -67.315
hc7         1.096269
hcc7        108.695
dih7        175.625
hc8         1.101967
hcc8        108.796
dih8        -67.314
hn9         1.015448
hnc9        111.122
dih9        163.620
hn10        1.016739
hnc10       109.976
dih10       -78.133
hn11        1.015441
hnc11       111.124
dih11       163.562
hn12        1.016726
hnc12       109.982
dih12       -78.182
 
 
 
 

