$RunGaus
%mem=16000Mb
%nproc=8
# mp2/cc-pVTZ

EtMeNH2+_a_single_point

1 1 
 c
 c   1 cc2     
 n    2 nc3         1 ncc3      
 c    3 cn4         2 cnc4          1 dih4   
 h    1 hc5         2 hcc5          3 dih5   
 h    1 hc6         2 hcc6          3 dih6   
 h    1 hc7         2 hcc7          3 dih7   
 h    2 hc8         3 hcn8          4 dih8   
 h    2 hc9         3 hcn9          4 dih9   
 h    3 hn10        2 hnc10         1 dih10  
 h    4 hc11        3 hcn11         2 dih11  
 h    4 hc12        3 hcn12         2 dih12  
 h    4 hc13        3 hcn13         2 dih13  
 h    3 hn14        2 hnc14         1 dih14  
 
cc2         1.520651
nc3         1.523300
ncc3        111.123
cn4         1.507300
cnc4        115.022
dih4        180.000
hc5         1.093304
hcc5        108.688
dih5       -180.000
hc6         1.094879
hcc6        112.072
dih6        -61.562
hc7         1.094879
hcc7        112.072
dih7         61.562
hc8         1.092544
hcn8        105.995
dih8         57.665
hc9         1.092542
hcn9        105.995
dih9        -57.665
hn10        1.025897
hnc10       108.620
dih10       -57.156
hc11        1.090430
hcn11       108.899
dih11      -179.999
hc12        1.089926
hcn12       108.499
dih12       -59.901
hc13        1.089924
hcn13       108.500
dih13        59.903
hn14        1.025893
hnc14       108.620
dih14        57.156
 
 
 
 

