$RunGaus
%mem=16000Mb
%nproc=8
# mp2/cc-pVTZ

EtMeNH2+_g_single_point

1 1 
 c
 c   1 cc2     
 n    2 nc3         1 ncc3      
 c    3 cn4         2 cnc4          1 dih4   
 h    1 hc5         2 hcc5          3 dih5   
 h    1 hc6         2 hcc6          3 dih6   
 h    1 hc7         2 hcc7          3 dih7   
 h    2 hc8         3 hcn8          4 dih8   
 h    2 hc9         3 hcn9          4 dih9   
 h    3 hn10        2 hnc10         1 dih10  
 h    4 hc11        3 hcn11         2 dih11  
 h    4 hc12        3 hcn12         2 dih12  
 h    4 hc13        3 hcn13         2 dih13  
 h    3 hn14        2 hnc14         1 dih14  
 
cc2         1.520207
nc3         1.528862
ncc3        112.369
cn4         1.508105
cnc4        115.899
dih4         66.787
hc5         1.093497
hcc5        108.168
dih5        175.649
hc6         1.092604
hcc6        112.855
dih6        -65.965
hc7         1.095302
hcc7        111.928
dih7         57.802
hc8         1.092675
hcn8        105.915
dih8        -56.437
hc9         1.092908
hcn9        105.494
dih9       -171.442
hn10        1.025139
hnc10       108.395
dih10      -170.849
hc11        1.090454
hcn11       108.593
dih11       176.989
hc12        1.088350
hcn12       108.994
dih12       -63.059
hc13        1.090143
hcn13       108.366
dih13        57.160
hn14        1.025974
hnc14       108.588
dih14       -56.316
 
 
 
 

