$RunGaus
%mem=16000Mb
%nproc=8
# mp2/cc-pVTZ

formamidine_cis_single_point

0 1 
 c
 n   1 nc2     
 n    1 nc3         2 ncn3      
 h    1 hc4         2 hcn4          3 dih4   
 h    3 hn5         1 hnc5          2 dih5   
 h    2 hn6         1 hnc6          3 dih6   
 h    2 hn7         1 hnc7          3 dih7   
 
nc2         1.375091
nc3         1.279177
ncn3        129.187
hc4         1.092605
hcn4        112.675
dih4       -179.993
hn5         1.024866
hnc5        111.750
dih5          0.005
hn6         1.007080
hnc6        120.883
dih6       -179.982
hn7         1.008760
hnc7        121.330
dih7         -0.023
 
 
 
 

