$RunGaus
%mem=16000Mb
%nproc=8
# mp2/cc-pVTZ

Gly_Gly_E_single_point

0 1 
 c
 n   1 nc2     
 c    1 cc3         2 ccn3      
 n    3 nc4         1 ncc4          2 dih4   
 c    4 cn5         3 cnc5          1 dih5   
 c    5 cc6         4 ccn6          3 dih6   
 o    6 oc7         5 occ7          4 dih7   
 o    3 oc8         1 occ8          2 dih8   
 o    6 oc9         5 occ9          4 dih9   
 h    5 hc10        4 hcn10         3 dih10  
 h    5 hc11        4 hcn11         3 dih11  
 h    4 hn12        3 hnc12         1 dih12  
 h    2 hn13        1 hnc13         3 dih13  
 h    2 hn14        1 hnc14         3 dih14  
 h    1 hc15        3 hcc15         8 dih15  
 h    1 hc16        3 hcc16         8 dih16  
 h    7 ho17        6 hoc17         5 dih17  
 
nc2         1.481197
cc3         1.528456
ccn3        104.908
nc4         1.375781
ncc4        113.569
dih4        -73.660
cn5         1.450657
cnc5        121.339
dih5        146.919
cc6         1.541763
ccn6        114.512
dih6        -88.959
oc7         1.346861
occ7        118.308
dih7         10.408
oc8         1.223261
occ8        122.485
dih8         98.766
oc9         1.208946
occ9        120.425
dih9       -169.544
hc10        1.092897
hcn10       108.154
dih10        31.179
hc11        1.092433
hcn11       111.043
dih11       149.248
hn12        1.011441
hnc12       116.663
dih12        -5.992
hn13        1.016027
hnc13       111.705
dih13       158.266
hn14        1.017659
hnc14       110.202
dih14       -82.751
hc15        1.094292
hcc15       109.007
dih15       -23.995
hc16        1.095168
hcc16       111.219
dih16      -143.932
ho17        0.984806
hoc17       115.313
dih17         1.427
 
 
 
 

