$RunGaus
%mem=16000Mb
%nproc=8
# mp2/cc-pVTZ

hexahydropyrimidine_H_H_single_point

0 1 
 c
 n   1 nc2     
 c    2 cn3         1 cnc3      
 c    3 cc4         2 ccn4          1 dih4   
 c    4 cc5         3 ccc5          2 dih5   
 n    5 nc6         4 ncc6          3 dih6   
 h    6 hn7         5 hnc7          4 dih7   
 h    2 hn8         3 hnc8          4 dih8   
 h    4 hc9         3 hcc9          2 dih9   
 h    3 hc10        4 hcc10         5 dih10  
 h    3 hc11        4 hcc11         5 dih11  
 h    5 hc12        4 hcc12         3 dih12  
 h    5 hc13        4 hcc13         3 dih13  
 h    1 hc14        2 hcn14         3 dih14  
 h    1 hc15        2 hcn15         3 dih15  
 h    4 hc16        3 hcc16         2 dih16  
 
nc2         1.465457
cn3         1.470116
cnc3        111.614
cc4         1.540246
ccn4        113.264
dih4        -50.628
cc5         1.540245
ccc5        109.892
dih5         51.014
nc6         1.470109
ncc6        113.263
dih6        -51.012
hn7         1.018545
hnc7        109.848
dih7        -71.475
hn8         1.018552
hnc8        109.846
dih8         71.466
hc9         1.099939
hcc9        109.421
dih9        -69.152
hc10        1.099451
hcc10       109.299
dih10       -68.519
hc11        1.095254
hcc11       111.291
dih11       173.842
hc12        1.095255
hcc12       111.291
dih12      -173.839
hc13        1.099450
hcc13       109.300
dih13        68.522
hc14        1.093732
hcn14       108.755
dih14       174.723
hc15        1.098025
hcn15       107.194
dih15       -68.978
hc16        1.098463
hcc16       110.477
dih16       173.172
 
 
 
 

