$RunGaus
%mem=16000Mb
%nproc=8
# mp2/cc-pVTZ

N_2_dimethylpiperidine_eq_ax_single_point

0 1 
 c
 c   1 cc2     
 c    2 cc3         1 ccc3      
 n    3 nc4         2 ncc4          1 dih4   
 c    4 cn5         3 cnc5          2 dih5   
 c    5 cc6         4 ccn6          3 dih6   
 c    3 cc7         4 ccn7          5 dih7   
 c    4 cn8         3 cnc8          2 dih8   
 h    3 hc9         4 hcn9          5 dih9   
 h    5 hc10        4 hcn10         3 dih10  
 h    5 hc11        4 hcn11         3 dih11  
 h    2 hc12        3 hcc12         4 dih12  
 h    2 hc13        3 hcc13         4 dih13  
 h    6 hc14        5 hcc14         4 dih14  
 h    6 hc15        5 hcc15         4 dih15  
 h    1 hc16        2 hcc16         3 dih16  
 h    1 hc17        2 hcc17         3 dih17  
 h    8 hc18        4 hcn18         3 dih18  
 h    8 hc19        4 hcn19         3 dih19  
 h    8 hc20        4 hcn20         3 dih20  
 h    7 hc21        3 hcc21         4 dih21  
 h    7 hc22        3 hcc22         4 dih22  
 h    7 hc23        3 hcc23         4 dih23  
 
cc2         1.536195
cc3         1.541607
ccc3        112.424
nc4         1.476951
ncc4        108.790
dih4         54.793
cn5         1.463442
cnc5        114.302
dih5        -57.452
cc6         1.532164
ccn6        111.182
dih6         58.211
cc7         1.545900
ccn7        115.319
dih7         69.535
cn8         1.454774
cnc8        114.145
dih8        171.053
hc9         1.098705
hcn9        105.572
dih9       -172.581
hc10        1.109379
hcn10       112.154
dih10       -64.996
hc11        1.096524
hcn11       107.609
dih11       178.448
hc12        1.097203
hcc12       108.073
dih12       -65.454
hc13        1.096951
hcc13       109.405
dih13       178.113
hc14        1.097036
hcc14       109.496
dih14      -177.004
hc15        1.097812
hcc15       108.595
dih15        66.072
hc16        1.098573
hcc16       110.150
dih16        67.389
hc17        1.096756
hcc17       110.030
dih17      -175.717
hc18        1.106626
hcn18       114.188
dih18        72.169
hc19        1.095690
hcn19       109.409
dih19      -167.246
hc20        1.095478
hcn20       109.660
dih20       -49.133
hc21        1.094649
hcc21       111.443
dih21        57.033
hc22        1.095807
hcc22       109.795
dih22       175.964
hc23        1.094530
hcc23       112.646
dih23       -64.192
 
 
 
 

