$RunGaus
%mem=16000Mb
%nproc=8
# mp2/cc-pVTZ

N_3_dimethylpiperidine_eq_ax_single_point

0 1 
 c
 c   1 cc2     
 c    2 cc3         1 ccc3      
 n    3 nc4         2 ncc4          1 dih4   
 c    4 cn5         3 cnc5          2 dih5   
 c    5 cc6         4 ccn6          3 dih6   
 c    4 cn7         3 cnc7          2 dih7   
 c    2 cc8         3 ccc8          4 dih8   
 h    3 hc9         4 hcn9          5 dih9   
 h    5 hc10        4 hcn10         3 dih10  
 h    5 hc11        4 hcn11         3 dih11  
 h    2 hc12        3 hcc12         4 dih12  
 h    6 hc13        5 hcc13         4 dih13  
 h    6 hc14        5 hcc14         4 dih14  
 h    1 hc15        2 hcc15         3 dih15  
 h    1 hc16        2 hcc16         3 dih16  
 h    7 hc17        4 hcn17         3 dih17  
 h    7 hc18        4 hcn18         3 dih18  
 h    7 hc19        4 hcn19         3 dih19  
 h    3 hc20        4 hcn20         5 dih20  
 h    8 hc21        2 hcc21         3 dih21  
 h    8 hc22        2 hcc22         3 dih22  
 h    8 hc23        2 hcc23         3 dih23  
 
cc2         1.543535
cc3         1.539685
ccc3        109.184
nc4         1.464562
ncc4        112.087
dih4         55.731
cn5         1.463928
cnc5        111.330
dih5        -60.595
cc6         1.531557
ccn6        111.146
dih6         59.562
cn7         1.455613
cnc7        111.668
dih7        173.779
cc8         1.537217
ccc8        112.013
dih8        -70.043
hc9         1.096650
hcn9        108.119
dih9        178.139
hc10        1.112406
hcn10       110.728
dih10       -62.232
hc11        1.096118
hcn11       108.288
dih11      -179.172
hc12        1.099085
hcc12       106.825
dih12       172.212
hc13        1.096869
hcc13       109.344
dih13      -177.011
hc14        1.096451
hcc14       108.926
dih14        66.395
hc15        1.099420
hcc15       108.699
dih15        68.521
hc16        1.097118
hcc16       110.266
dih16      -174.911
hc17        1.108921
hcn17       112.864
dih17        62.690
hc18        1.094973
hcn18       109.817
dih18      -176.722
hc19        1.094853
hcn19       109.847
dih19       -57.935
hc20        1.111658
hcn20       110.604
dih20        61.398
hc21        1.093518
hcc21       111.589
dih21        58.955
hc22        1.096238
hcc22       110.846
dih22       179.812
hc23        1.096278
hcc23       110.747
dih23       -60.722
 
 
 
 

