$RunGaus
%mem=16000Mb
%nproc=8
# mp2/cc-pVTZ

N_4_dimethylpiperidine_eq_eq_single_point

0 1 
 c
 c   1 cc2     
 c    2 cc3         1 ccc3      
 n    3 nc4         2 ncc4          1 dih4   
 c    4 cn5         3 cnc5          2 dih5   
 c    5 cc6         4 ccn6          3 dih6   
 c    4 cn7         3 cnc7          2 dih7   
 c    1 cc8         2 ccc8          3 dih8   
 h    3 hc9         4 hcn9          5 dih9   
 h    5 hc10        4 hcn10         3 dih10  
 h    5 hc11        4 hcn11         3 dih11  
 h    2 hc12        3 hcc12         4 dih12  
 h    6 hc13        5 hcc13         4 dih13  
 h    6 hc14        5 hcc14         4 dih14  
 h    1 hc15        2 hcc15         3 dih15  
 h    7 hc16        4 hcn16         3 dih16  
 h    7 hc17        4 hcn17         3 dih17  
 h    7 hc18        4 hcn18         3 dih18  
 h    3 hc19        4 hcn19         5 dih19  
 h    2 hc20        3 hcc20         4 dih20  
 h    8 hc21        1 hcc21         2 dih21  
 h    8 hc22        1 hcc22         2 dih22  
 h    8 hc23        1 hcc23         2 dih23  
 
cc2         1.537695
cc3         1.531421
ccc3        111.720
nc4         1.463382
ncc4        111.317
dih4         56.119
cn5         1.463384
cnc5        111.479
dih5        -58.700
cc6         1.531419
ccn6        111.317
dih6         58.701
cn7         1.455435
cnc7        111.865
dih7        175.203
cc8         1.532687
ccc8        112.161
dih8       -177.199
hc9         1.096154
hcn9        108.201
dih9       -179.814
hc10        1.111861
hcn10       110.855
dih10       -63.292
hc11        1.096154
hcn11       108.201
dih11       179.815
hc12        1.098533
hcc12       108.847
dih12       -64.665
hc13        1.097676
hcc13       109.329
dih13      -178.489
hc14        1.098536
hcc14       108.847
dih14        64.665
hc15        1.101939
hcc15       107.605
dih15        64.115
hc16        1.108812
hcn16       112.965
dih16        62.942
hc17        1.094882
hcn17       109.800
dih17      -176.418
hc18        1.094882
hcn18       109.800
dih18       -57.698
hc19        1.111864
hcn19       110.856
dih19        63.293
hc20        1.097677
hcc20       109.329
dih20       178.489
hc21        1.097165
hcc21       110.934
dih21        61.570
hc22        1.096282
hcc22       111.283
dih22      -178.548
hc23        1.096283
hcc23       111.283
dih23       -58.312
 
 
 
 

