$RunGaus
%mem=16000Mb
%nproc=8
# mp2/cc-pVTZ

N_Ac_Gly_N_methylamide_g_g_plus_single_point

0 1 
 c
 c   1 cc2     
 n    2 nc3         1 ncc3      
 c    3 cn4         2 cnc4          1 dih4   
 c    4 cc5         3 ccn5          2 dih5   
 n    5 nc6         4 ncc6          3 dih6   
 c    6 cn7         5 cnc7          4 dih7   
 o    2 oc8         3 ocn8          4 dih8   
 o    5 oc9         4 occ9          3 dih9   
 h    1 hc10        2 hcc10         8 dih10  
 h    1 hc11        2 hcc11         8 dih11  
 h    1 hc12        2 hcc12         8 dih12  
 h    4 hc13        3 hcn13         2 dih13  
 h    4 hc14        3 hcn14         2 dih14  
 h    3 hn15        2 hnc15         1 dih15  
 h    6 hn16        5 hnc16         4 dih16  
 h    7 hc17        6 hcn17         5 dih17  
 h    7 hc18        6 hcn18         5 dih18  
 h    7 hc19        6 hcn19         5 dih19  
 
cc2         1.515725
nc3         1.361553
ncc3        116.588
cn4         1.461557
cnc4        122.614
dih4       -177.468
cc5         1.540757
ccn5        113.748
dih5        -82.373
nc6         1.355430
ncc6        114.771
dih6         69.716
cn7         1.455106
cnc7        121.735
dih7       -177.669
oc8         1.235488
ocn8        121.727
dih8          2.165
oc9         1.230959
occ9        121.280
dih9       -110.997
hc10        1.093397
hcc10       113.671
dih10       179.131
hc11        1.093760
hcc11       108.501
dih11       -59.436
hc12        1.093431
hcc12       108.813
dih12        57.207
hc13        1.094556
hcn13       108.026
dih13        40.148
hc14        1.090064
hcn14       108.535
dih14       158.558
hn15        1.009183
hnc15       119.184
dih15         5.606
hn16        1.016297
hnc16       117.561
dih16        -5.431
hc17        1.091739
hcn17       108.768
dih17      -167.434
hc18        1.092729
hcn18       109.916
dih18       -47.744
hc19        1.096660
hcn19       111.743
dih19        72.095
 
 
 
 

