$RunGaus
%mem=16000Mb
%nproc=8
# mp2/cc-pVTZ

N_Ac_Ala_N_methylamide_aa_single_point

0 1 
 c
 c   1 cc2     
 n    2 nc3         1 ncc3      
 c    3 cn4         2 cnc4          1 dih4   
 c    4 cc5         3 ccn5          2 dih5   
 o    2 oc6         3 ocn6          4 dih6   
 c    4 cc7         3 ccn7          2 dih7   
 n    7 nc8         4 ncc8          3 dih8   
 c    8 cn9         7 cnc9          4 dih9   
 o    7 oc10        4 occ10         3 dih10  
 h    1 hc11        2 hcc11         6 dih11  
 h    1 hc12        2 hcc12         6 dih12  
 h    1 hc13        2 hcc13         6 dih13  
 h    4 hc14        3 hcn14         2 dih14  
 h    3 hn15        2 hnc15         1 dih15  
 h    8 hn16        7 hnc16         4 dih16  
 h    9 hc17        8 hcn17         7 dih17  
 h    9 hc18        8 hcn18         7 dih18  
 h    9 hc19        8 hcn19         7 dih19  
 h    5 hc20        4 hcc20         3 dih20  
 h    5 hc21        4 hcc21         3 dih21  
 h    5 hc22        4 hcc22         3 dih22  
 
cc2         1.518875
nc3         1.362264
ncc3        115.930
cn4         1.451923
cnc4        122.277
dih4        177.887
cc5         1.542706
ccn5        112.019
dih5         82.912
oc6         1.232042
ocn6        122.206
dih6         -2.305
cc7         1.536620
ccn7        107.201
dih7       -154.996
nc8         1.358378
ncc8        115.414
dih8        159.407
cn9         1.456891
cnc9        122.715
dih9        178.433
oc10        1.231809
occ10       121.453
dih10       -22.776
hc11        1.093493
hcc11       113.555
dih11       179.513
hc12        1.093670
hcc12       108.655
dih12        57.797
hc13        1.093745
hcc13       108.696
dih13       -58.855
hc14        1.096738
hcn14       107.760
dih14       -36.436
hn15        1.013217
hnc15       121.831
dih15         4.133
hn16        1.009709
hnc16       118.393
dih16        -7.897
hc17        1.092881
hcn17       109.588
dih17      -146.704
hc18        1.096353
hcn18       111.698
dih18        92.220
hc19        1.090627
hcn19       108.525
dih19       -27.256
hc20        1.092474
hcc20       109.003
dih20       -58.043
hc21        1.094383
hcc21       110.434
dih21        61.798
hc22        1.095111
hcc22       111.198
dih22      -177.588
 
 
 
 

