$RunGaus
%mem=16000Mb
%nproc=8
# mp2/cc-pVTZ

N_methylformamidine_t_single_point

0 1 
 c
 n   1 nc2     
 c    2 cn3         1 cnc3      
 n    3 nc4         2 ncn4          1 dih4   
 h    3 hc5         2 hcn5          1 dih5   
 h    4 hn6         3 hnc6          2 dih6   
 h    4 hn7         3 hnc7          2 dih7   
 h    1 hc8         2 hcn8          3 dih8   
 h    1 hc9         2 hcn9          3 dih9   
 h    1 hc10        2 hcn10         3 dih10  
 
nc2         1.450208
cn3         1.274047
cnc3        117.768
nc4         1.369421
ncn4        123.006
dih4       -179.987
hc5         1.101198
hcn5        123.475
dih5         -0.002
hn6         1.004832
hnc6        121.338
dih6        179.954
hn7         1.008448
hnc7        119.342
dih7          0.011
hc8         1.096877
hcn8        109.902
dih8       -121.306
hc9         1.104294
hcn9        113.685
dih9          0.012
hc10        1.096878
hcn10       109.904
dih10       121.333
 
 
 
 

