$RunGaus
%mem=16000Mb
%nproc=8
# mp2/cc-pVTZ

N_methylformamide_Z_single_point

0 1 
 c
 n   1 nc2     
 c    2 cn3         1 cnc3      
 o    3 oc4         2 ocn4          1 dih4   
 h    2 hn5         3 hnc5          4 dih5   
 h    1 hc6         2 hcn6          3 dih6   
 h    1 hc7         2 hcn7          3 dih7   
 h    1 hc8         2 hcn8          3 dih8   
 h    3 hc9         2 hcn9          1 dih9   
 
nc2         1.457763
cn3         1.358310
cnc3        122.073
oc4         1.223301
ocn4        124.498
dih4          0.085
hn5         1.009380
hnc5        118.265
dih5        179.830
hc6         1.091394
hcn6        108.828
dih6       -179.144
hc7         1.094179
hcn7        110.649
dih7        -59.118
hc8         1.094394
hcn8        110.764
dih8         60.767
hc9         1.106508
hcn9        112.828
dih9       -179.943
 
 
 
 

