$RunGaus
%mem=16000Mb
%nproc=8
# mp2/cc-pVTZ

N_methylformamide_E_single_point

0 1 
 c
 n   1 nc2     
 c    2 cn3         1 cnc3      
 o    3 oc4         2 ocn4          1 dih4   
 h    2 hn5         3 hnc5          4 dih5   
 h    1 hc6         2 hcn6          3 dih6   
 h    1 hc7         2 hcn7          3 dih7   
 h    1 hc8         2 hcn8          3 dih8   
 h    3 hc9         2 hcn9          1 dih9   
 
nc2         1.452932
cn3         1.359726
cnc3        125.094
oc4         1.222607
ocn4        124.913
dih4       -179.952
hn5         1.013036
hnc5        115.703
dih5          0.033
hc6         1.095503
hcn6        111.389
dih6       -119.683
hc7         1.093135
hcn7        109.037
dih7         -0.821
hc8         1.094874
hcn8        111.504
dih8        118.841
hc9         1.107369
hcn9        112.744
dih9          0.015
 
 
 
 

