$RunGaus
%mem=16000Mb
%nproc=8
# mp2/cc-pVTZ

N_methylformamidine_cis_single_point

0 1 
 c
 n   1 nc2     
 c    2 cn3         1 cnc3      
 n    3 nc4         2 ncn4          1 dih4   
 h    3 hc5         2 hcn5          1 dih5   
 h    4 hn6         3 hnc6          2 dih6   
 h    4 hn7         3 hnc7          2 dih7   
 h    1 hc8         2 hcn8          3 dih8   
 h    1 hc9         2 hcn9          3 dih9   
 h    1 hc10        2 hcn10         3 dih10  
 
nc2         1.456274
cn3         1.278780
cnc3        117.549
nc4         1.377066
ncn4        128.301
dih4          0.004
hc5         1.091227
hcn5        118.396
dih5       -179.997
hn6         1.006495
hnc6        120.570
dih6       -179.999
hn7         1.006925
hnc7        121.839
dih7         -0.003
hc8         1.092632
hcn8        109.242
dih8       -179.996
hc9         1.102897
hcn9        112.397
dih9        -60.856
hc10        1.102897
hcn10       112.397
dih10        60.864
 
 
 
 

