$RunGaus
%mem=16000Mb
%nproc=8
# mp2/cc-pVTZ

N_Me_piperidinium_ax_single_point

1 1 
 c
 c   1 cc2     
 c    2 cc3         1 ccc3      
 n    3 nc4         2 ncc4          1 dih4   
 c    4 cn5         3 cnc5          2 dih5   
 c    5 cc6         4 ccn6          3 dih6   
 c    4 cn7         3 cnc7          2 dih7   
 h    3 hc8         4 hcn8          5 dih8   
 h    3 hc9         4 hcn9          5 dih9   
 h    5 hc10        4 hcn10         3 dih10  
 h    5 hc11        4 hcn11         3 dih11  
 h    2 hc12        3 hcc12         4 dih12  
 h    2 hc13        3 hcc13         4 dih13  
 h    6 hc14        5 hcc14         4 dih14  
 h    6 hc15        5 hcc15         4 dih15  
 h    1 hc16        2 hcc16         3 dih16  
 h    1 hc17        2 hcc17         3 dih17  
 h    7 hc18        4 hcn18         3 dih18  
 h    7 hc19        4 hcn19         3 dih19  
 h    7 hc20        4 hcn20         3 dih20  
 h    4 hn21        3 hnc21         2 dih21  
 
cc2         1.536474
cc3         1.526205
ccc3        111.631
nc4         1.529168
ncc4        111.761
dih4         55.037
cn5         1.529174
cnc5        111.005
dih5        -54.983
cc6         1.526207
ccn6        111.762
dih6         54.981
cn7         1.505368
cnc7        113.210
dih7         73.623
hc8         1.092468
hcn8        106.756
dih8       -178.750
hc9         1.094165
hcn9        105.595
dih9         65.827
hc10        1.094165
hcn10       105.595
dih10       -65.828
hc11        1.092466
hcn11       106.757
dih11       178.749
hc12        1.096339
hcc12       110.403
dih12       -68.513
hc13        1.094819
hcc13       107.094
dih13       176.503
hc14        1.094819
hcc14       107.094
dih14      -176.500
hc15        1.096339
hcc15       110.402
dih15        68.516
hc16        1.097877
hcc16       109.585
dih16        66.850
hc17        1.093380
hcc17       110.002
dih17      -176.250
hc18        1.090656
hcn18       108.635
dih18        56.413
hc19        1.090657
hcn19       108.635
dih19       176.110
hc20        1.087537
hcn20       109.691
dih20       -63.739
hn21        1.023607
hnc21       106.341
dih21      -170.237
 
 
 
 

