$RunGaus
%mem=16000Mb
%nproc=8
# mp2/cc-pVTZ

N_methyl_piperidinium_eq_single_point

1 1 
 c
 c   1 cc2     
 c    2 cc3         1 ccc3      
 n    3 nc4         2 ncc4          1 dih4   
 c    4 cn5         3 cnc5          2 dih5   
 c    5 cc6         4 ccn6          3 dih6   
 c    4 cn7         3 cnc7          2 dih7   
 h    3 hc8         4 hcn8          5 dih8   
 h    3 hc9         4 hcn9          5 dih9   
 h    5 hc10        4 hcn10         3 dih10  
 h    5 hc11        4 hcn11         3 dih11  
 h    2 hc12        3 hcc12         4 dih12  
 h    2 hc13        3 hcc13         4 dih13  
 h    6 hc14        5 hcc14         4 dih14  
 h    6 hc15        5 hcc15         4 dih15  
 h    1 hc16        2 hcc16         3 dih16  
 h    1 hc17        2 hcc17         3 dih17  
 h    7 hc18        4 hcn18         3 dih18  
 h    7 hc19        4 hcn19         3 dih19  
 h    7 hc20        4 hcn20         3 dih20  
 h    4 hn21        3 hnc21         2 dih21  
 
cc2         1.535134
cc3         1.527209
ccc3        111.768
nc4         1.521965
ncc4        110.927
dih4         55.520
cn5         1.521963
cnc5        111.381
dih5        -56.358
cc6         1.527209
ccn6        110.927
dih6         56.358
cn7         1.503008
cnc7        112.087
dih7        177.154
hc8         1.092701
hcn8        106.806
dih8       -179.180
hc9         1.094236
hcn9        105.823
dih9         65.192
hc10        1.094234
hcn10       105.823
dih10       -65.192
hc11        1.092701
hcn11       106.807
dih11       179.179
hc12        1.098648
hcc12       109.574
dih12       -67.138
hc13        1.094613
hcc13       107.585
dih13       177.781
hc14        1.094613
hcc14       107.586
dih14      -177.781
hc15        1.098650
hcc15       109.574
dih15        67.138
hc16        1.097600
hcc16       109.762
dih16        66.953
hc17        1.093455
hcc17       109.973
dih17      -175.992
hc18        1.090618
hcn18       109.019
dih18      -177.094
hc19        1.090616
hcn19       109.019
dih19       -56.801
hc20        1.090482
hcn20       108.557
dih20        63.053
hn21        1.025943
hnc21       106.778
dih21        59.862
 
 
 
 

