$RunGaus
%mem=16000Mb
%nproc=8
# mp2/cc-pVTZ

NAPA_b_single_point

0 1 
 c
 c   1 cc2     
 c    2 cc3         1 ccc3      
 c    3 cc4         2 ccc4          1 dih4   
 c    4 cc5         3 ccc5          2 dih5   
 c    5 cc6         4 ccc6          3 dih6   
 c    4 cc7         5 ccc7          6 dih7   
 c    7 cc8         4 ccc8          5 dih8   
 c    8 cc9         7 ccc9          4 dih9   
 n    9 nc10        8 ncc10         7 dih10  
 n    8 nc11        9 ncc11        10 dih11  
 c   11 cn12        8 cnc12         9 dih12  
 o   12 oc13       11 ocn13         8 dih13  
 c   12 cc14       11 ccn14         8 dih14  
 o    9 oc15        8 occ15        11 dih15  
 h   14 hc16       12 hcc16        13 dih16  
 h   14 hc17       12 hcc17        13 dih17  
 h   14 hc18       12 hcc18        13 dih18  
 h    8 hc19       11 hcn19        12 dih19  
 h   10 hn20        9 hnc20         8 dih20  
 h   11 hn21       12 hnc21        14 dih21  
 h   10 hn22        9 hnc22         8 dih22  
 h    7 hc23        8 hcc23        11 dih23  
 h    7 hc24        8 hcc24        11 dih24  
 h    5 hc25        4 hcc25         7 dih25  
 h    3 hc26        4 hcc26         7 dih26  
 h    2 hc27        3 hcc27         4 dih27  
 h    6 hc28        5 hcc28         4 dih28  
 h    1 hc29        2 hcc29         3 dih29  
 
cc2         1.398716
cc3         1.396879
ccc3        120.210
cc4         1.405912
ccc4        120.805
dih4         -0.295
cc5         1.402786
ccc5        118.381
dih5          0.403
cc6         1.398384
ccc6        120.947
dih6         -0.141
cc7         1.513669
ccc7        121.464
dih7       -179.761
cc8         1.562022
ccc8        114.724
dih8       -112.013
cc9         1.536772
ccc9        112.228
dih9         74.544
nc10        1.357724
ncc10       115.961
dih10       -75.958
nc11        1.449603
ncc11       107.000
dih11       161.737
cn12        1.362382
cnc12       121.914
dih12      -157.027
oc13        1.232680
ocn13       121.995
dih13        -3.199
cc14        1.518013
ccn14       116.037
dih14       177.270
oc15        1.229977
occ15       121.422
dih15       -18.080
hc16        1.093375
hcc16       113.499
dih16       178.213
hc17        1.093519
hcc17       108.645
dih17        56.467
hc18        1.093897
hcc18       108.733
dih18       -60.203
hc19        1.095678
hcn19       108.373
dih19       -38.639
hn20        1.010273
hnc20       117.886
dih20       173.282
hn21        1.013617
hnc21       121.964
dih21         5.569
hn22        1.009427
hnc22       121.698
dih22         8.760
hc23        1.095393
hcc23       108.770
dih23        69.875
hc24        1.094172
hcc24       105.456
dih24       -45.305
hc25        1.087260
hcc25       119.394
dih25        -0.055
hc26        1.087532
hcc26       119.372
dih26         1.023
hc27        1.086334
hcc27       119.704
dih27      -179.659
hc28        1.086390
hcc28       119.751
dih28       179.602
hc29        1.086100
hcc29       120.214
dih29      -179.635
 
 
 
 

