$RunGaus
%mem=16000Mb
%nproc=8
# mp2/cc-pVTZ

NAPA_g+_single_point

0 1 
 c
 c   1 cc2     
 c    2 cc3         1 ccc3      
 c    3 cc4         2 ccc4          1 dih4   
 c    4 cc5         3 ccc5          2 dih5   
 c    5 cc6         4 ccc6          3 dih6   
 c    4 cc7         5 ccc7          6 dih7   
 c    7 cc8         4 ccc8          5 dih8   
 c    8 cc9         7 ccc9          4 dih9   
 n    9 nc10        8 ncc10         7 dih10  
 n    8 nc11        9 ncc11        10 dih11  
 c   11 cn12        8 cnc12         9 dih12  
 o   12 oc13       11 ocn13         8 dih13  
 c   12 cc14       11 ccn14         8 dih14  
 o    9 oc15        8 occ15        11 dih15  
 h   14 hc16       12 hcc16        13 dih16  
 h   14 hc17       12 hcc17        13 dih17  
 h   14 hc18       12 hcc18        13 dih18  
 h    8 hc19       11 hcn19        12 dih19  
 h   10 hn20        9 hnc20         8 dih20  
 h   11 hn21       12 hnc21        14 dih21  
 h   10 hn22        9 hnc22         8 dih22  
 h    7 hc23        8 hcc23        11 dih23  
 h    7 hc24        8 hcc24        11 dih24  
 h    5 hc25        4 hcc25         7 dih25  
 h    3 hc26        4 hcc26         7 dih26  
 h    2 hc27        3 hcc27         4 dih27  
 h    6 hc28        5 hcc28         4 dih28  
 h    1 hc29        2 hcc29         3 dih29  
 
cc2         1.398688
cc3         1.396666
ccc3        120.533
cc4         1.405551
ccc4        120.570
dih4          0.072
cc5         1.404806
ccc5        118.339
dih5          0.185
cc6         1.399015
ccc6        121.133
dih6         -0.287
cc7         1.519747
ccc7        119.937
dih7       -179.950
cc8         1.547282
ccc8        116.004
dih8       -101.836
cc9         1.555061
ccc9        112.678
dih9        -84.340
nc10        1.355676
ncc10       114.106
dih10      -177.904
nc11        1.463619
ncc11       112.811
dih11        55.903
cn12        1.358799
cnc12       124.188
dih12       -82.181
oc13        1.237594
ocn13       122.181
dih13         5.077
cc14        1.515852
ccn14       116.371
dih14      -175.154
oc15        1.228669
occ15       122.521
dih15      -126.243
hc16        1.093783
hcc16       108.494
dih16       -58.845
hc17        1.093171
hcc17       113.598
dih17       179.625
hc18        1.093595
hcc18       108.780
dih18        57.743
hc19        1.097121
hcn19       106.341
dih19        33.027
hn20        1.009733
hnc20       118.067
dih20       176.663
hn21        1.011989
hnc21       119.150
dih21         3.860
hn22        1.017105
hnc22       120.756
dih22         4.308
hc23        1.094910
hcc23       107.418
dih23       -78.589
hc24        1.093089
hcc24       106.956
dih24       166.031
hc25        1.088010
hcc25       119.376
dih25        -1.000
hc26        1.085113
hcc26       118.912
dih26        -0.429
hc27        1.086470
hcc27       119.503
dih27      -179.704
hc28        1.086478
hcc28       119.806
dih28       179.603
hc29        1.086246
hcc29       120.275
dih29      -179.818
 
 
 
 

