$RunGaus
%mem=16000Mb
%nproc=8
# mp2/cc-pVTZ

piperidine_ax_single_point

0 1 
 c
 c   1 cc2     
 c    2 cc3         1 ccc3      
 n    3 nc4         2 ncc4          1 dih4   
 c    4 cn5         3 cnc5          2 dih5   
 c    5 cc6         4 ccn6          3 dih6   
 h    4 hn7         3 hnc7          2 dih7   
 h    3 hc8         4 hcn8          5 dih8   
 h    3 hc9         4 hcn9          5 dih9   
 h    5 hc10        4 hcn10         3 dih10  
 h    5 hc11        4 hcn11         3 dih11  
 h    2 hc12        3 hcc12         4 dih12  
 h    2 hc13        3 hcc13         4 dih13  
 h    6 hc14        5 hcc14         4 dih14  
 h    6 hc15        5 hcc15         4 dih15  
 h    1 hc16        2 hcc16         3 dih16  
 h    1 hc17        2 hcc17         3 dih17  
 
cc2         1.537725
cc3         1.539500
ccc3        110.779
nc4         1.467902
ncc4        114.139
dih4         52.960
cn5         1.467911
cnc5        112.484
dih5        -52.225
cc6         1.539502
ccn6        114.140
dih6         52.223
hn7         1.018074
hnc7        109.672
dih7         70.110
hc8         1.095883
hcn8        108.294
dih8       -176.200
hc9         1.099837
hcn9        107.311
dih9         68.962
hc10        1.099835
hcn10       107.309
dih10       -68.962
hc11        1.095883
hcn11       108.294
dih11       176.200
hc12        1.100137
hcc12       109.090
dih12       -67.542
hc13        1.098075
hcc13       110.024
dih13       175.642
hc14        1.098078
hcc14       110.026
dih14      -175.639
hc15        1.100134
hcc15       109.089
dih15        67.544
hc16        1.100146
hcc16       109.112
dih16        67.387
hc17        1.096802
hcc17       110.610
dih17      -175.779
 
 
 
 

