$RunGaus
%mem=16000Mb
%nproc=8
# mp2/cc-pVTZ

propylamine_g_single_point

0 1 
 c
 c   1 cc2     
 c    2 cc3         1 ccc3      
 n    3 nc4         2 ncc4          1 dih4   
 h    4 hn5         3 hnc5          2 dih5   
 h    3 hc6         2 hcc6          1 dih6   
 h    3 hc7         2 hcc7          1 dih7   
 h    2 hc8         3 hcc8          4 dih8   
 h    2 hc9         3 hcc9          4 dih9   
 h    4 hn10        3 hnc10         2 dih10  
 h    1 hc11        2 hcc11         3 dih11  
 h    1 hc12        2 hcc12         3 dih12  
 h    1 hc13        2 hcc13         3 dih13  
 
cc2         1.532475
cc3         1.533617
ccc3        113.861
nc4         1.469805
ncc4        111.269
dih4        -63.956
hn5         1.017269
hnc5        110.813
dih5        -68.564
hc6         1.103797
hcc6        108.892
dih6        170.605
hc7         1.097530
hcc7        109.181
dih7         54.414
hc8         1.100046
hcc8        108.760
dih8         58.754
hc9         1.098121
hcc9        108.244
dih9        173.463
hn10        1.015828
hnc10       111.285
dih10       172.207
hc11        1.095589
hcc11       111.169
dih11       178.269
hc12        1.096916
hcc12       110.840
dih12       -61.994
hc13        1.093425
hcc13       110.867
dih13        57.527
 
 
 
 

