$RunGaus
%mem=16000Mb
%nproc=8
# mp2/cc-pVTZ

propylamine_a_single_point

0 1 
 c
 c   1 cc2     
 c    2 cc3         1 ccc3      
 n    3 nc4         2 ncc4          1 dih4   
 h    4 hn5         3 hnc5          2 dih5   
 h    3 hc6         2 hcc6          1 dih6   
 h    3 hc7         2 hcc7          1 dih7   
 h    2 hc8         3 hcc8          4 dih8   
 h    2 hc9         3 hcc9          4 dih9   
 h    4 hn10        3 hnc10         2 dih10  
 h    1 hc11        2 hcc11         3 dih11  
 h    1 hc12        2 hcc12         3 dih12  
 h    1 hc13        2 hcc13         3 dih13  
 
cc2         1.532472
cc3         1.530221
ccc3        112.987
nc4         1.468613
ncc4        110.898
dih4       -178.655
hn5         1.017225
hnc5        110.883
dih5        -65.249
hc6         1.104975
hcc6        108.976
dih6         55.757
hc7         1.097376
hcc7        109.202
dih7        -60.377
hc8         1.096522
hcc8        108.452
dih8        -55.910
hc9         1.099770
hcc9        108.967
dih9         59.464
hn10        1.016084
hnc10       111.257
dih10       175.482
hc11        1.095036
hcc11       111.226
dih11      -179.719
hc12        1.096572
hcc12       111.457
dih12       -59.641
hc13        1.096565
hcc13       111.215
dih13        60.408
 
 
 
 

