$RunGaus
%mem=16000Mb
%nproc=8
# mp2/cc-pVTZ

propanediamine_H_plus_GGg_single_point

1 1 
 c
 c   1 cc2     
 c    2 cc3         1 ccc3      
 n    3 nc4         2 ncc4          1 dih4   
 n    1 nc5         2 ncc5          3 dih5   
 h    1 hc6         2 hcc6          3 dih6   
 h    1 hc7         2 hcc7          3 dih7   
 h    5 hn8         1 hnc8          2 dih8   
 h    5 hn9         1 hnc9          2 dih9   
 h    3 hc10        2 hcc10         1 dih10  
 h    3 hc11        2 hcc11         1 dih11  
 h    4 hn12        3 hnc12         2 dih12  
 h    4 hn13        3 hnc13         2 dih13  
 h    4 hn14        3 hnc14         2 dih14  
 h    2 hc15        1 hcc15         5 dih15  
 h    2 hc16        1 hcc16         5 dih16  
 
cc2         1.536672
cc3         1.531038
ccc3        113.106
nc4         1.519902
ncc4        109.417
dih4        -61.990
nc5         1.493889
ncc5        110.420
dih5         60.015
hc6         1.094842
hcc6        109.622
dih6        -58.277
hc7         1.094890
hcc7        110.109
dih7       -175.974
hn8         1.019883
hnc8        110.618
dih8         85.625
hn9         1.018490
hnc9        110.963
dih9       -157.106
hc10        1.091686
hcc10       112.655
dih10       177.025
hc11        1.093190
hcc11       111.058
dih11        55.126
hn12        1.097464
hnc12       104.326
dih12        36.582
hn13        1.022468
hnc13       112.702
dih13       158.429
hn14        1.022992
hnc14       111.536
dih14       -80.349
hc15        1.094930
hcc15       109.143
dih15       179.952
hc16        1.098614
hcc16       110.423
dih16       -63.884
 
 
 
 

