$RunGaus
%mem=16000Mb
%nproc=8
# mp2/cc-pVTZ

pyrrolidine_eq_single_point

0 1 
 c
 c   1 cc2     
 n    2 nc3         1 ncc3      
 c    3 cn4         2 cnc4          1 dih4   
 c    4 cc5         3 ccn5          2 dih5   
 h    3 hn6         4 hnc6          5 dih6   
 h    4 hc7         3 hcn7          2 dih7   
 h    4 hc8         3 hcn8          2 dih8   
 h    2 hc9         3 hcn9          4 dih9   
 h    2 hc10        3 hcn10         4 dih10  
 h    5 hc11        4 hcc11         3 dih11  
 h    5 hc12        4 hcc12         3 dih12  
 h    1 hc13        2 hcc13         3 dih13  
 h    1 hc14        2 hcc14         3 dih14  
 
cc2         1.543818
nc3         1.466872
ncc3        102.819
cn4         1.466870
cnc4        105.148
dih4        -44.042
cc5         1.543805
ccn5        102.818
dih5         44.048
hn6         1.016166
hnc6        112.777
dih6        167.324
hc7         1.106529
hcn7        112.471
dih7        -73.904
hc8         1.094734
hcn8        110.803
dih8        165.225
hc9         1.094733
hcn9        110.802
dih9       -165.220
hc10        1.106530
hcn10       112.471
dih10        73.910
hc11        1.094132
hcc11       111.514
dih11      -147.692
hc12        1.093854
hcc12       110.370
dih12        92.869
hc13        1.093854
hcc13       110.372
dih13       -92.884
hc14        1.094131
hcc14       111.513
dih14       147.677
 
 
 
 

