# opt uff

butaclahol-1d

0 1
 C                 -2.84132143   -0.20127041   -1.37872959
 C                 -2.99032143    0.65872959   -0.29672959
 C                 -1.86632143    1.17472959    0.35427041
 C                 -1.56132143   -0.63627041   -1.70872959
 C                 -0.43432143   -0.20127041   -1.00172959
 C                 -0.57032143    0.85172959   -0.07472959
 C                 -2.06432143    2.11072959    1.51427041
 C                 -1.85932143    3.53272959    1.01627041
 C                 -0.44632143    3.93672959    0.65227041
 C                  0.63667857    1.53072959    0.56327041
 C                  0.66067857    3.07672959    0.46227041
 C                 -0.29432143    5.32472959    0.50627041
 C                  0.92567857    5.92872959    0.21927041
 C                  1.88967857    3.72972959    0.23727041
 C                  2.04067857    5.10872959    0.10427041
 C                  0.91267857   -0.82827041   -1.29672959
 C                  1.92767857    0.91172959   -0.02572959
 N                  1.89467857   -0.51627041   -0.26972959
 C                  0.94967857   -2.35027041   -1.58072959
 C                  0.94767857   -3.35827041   -0.39772959
 C                  1.86967857   -2.78427041    0.70027041
 C                  1.69567857   -1.28127041    0.94827041
 C                 -0.43632143   -3.89327041    0.12227041
 C                 -1.18232143   -2.91227041    1.05027041
 C                 -1.38532143   -4.26027041   -1.04272959
 C                 -0.26232143   -5.19927041    0.94827041
 O                  1.62467857   -4.50327041   -0.90572959
 H                  1.84467857   -5.05727041   -0.17672959
 H                 -3.72232143   -0.57427041   -1.92772959
 H                 -4.00532143    0.95372959    0.01627041
 H                 -1.46432143   -1.34727041   -2.54272959
 H                 -1.39232143    1.87072959    2.36927041
 H                 -3.09832143    1.99772959    1.91827041
 H                 -2.20532143    4.20772959    1.83527041
 H                 -2.52132143    3.72472959    0.13827041
 H                  0.63167857    1.29072959    1.65227041
 H                 -1.16732143    5.98872959    0.63027041
 H                  1.01267857    7.02372959    0.11927041
 H                  2.83767857    3.18072959    0.16027041
 H                  3.03367857    5.55272959   -0.08072959
 H                  2.79867857    1.11372959    0.64327041
 H                  2.15167857    1.39272959   -1.00872959
 H                  1.93767857   -2.48727041   -2.08372959
 H                  0.23667857   -2.65627041   -2.37572959
 H                  1.76267857   -3.34427041    1.65627041
 H                  2.93267857   -2.92827041    0.39027041
 H                  0.70067857   -1.06627041    1.39427041
 H                  2.45067857   -0.96827041    1.71027041
 H                 -2.19332143   -3.29427041    1.32227041
 H                 -0.64432143   -2.75327041    2.01127041
 H                 -1.34632143   -1.92827041    0.56927041
 H                 -2.29632143   -4.79027041   -0.68072959
 H                 -1.75732143   -3.36427041   -1.58272959
 H                 -0.89432143   -4.93127041   -1.78472959
 H                 -1.23032143   -5.54327041    1.38027041
 H                  0.11267857   -6.04727041    0.33227041
 H                  0.43467857   -5.07327041    1.80527041
 H                  1.22767857   -0.32427041   -2.24472959

 1 2 1.5 4 1.5 29 1.0
 2 3 1.5 30 1.0
 3 6 1.5 7 1.0
 4 5 1.5 31 1.0
 5 6 1.5 16 1.0
 6 10 1.0
 7 8 1.0 32 1.0 33 1.0
 8 9 1.0 34 1.0 35 1.0
 9 11 1.5 12 1.5
 10 11 1.0 17 1.0 36 1.0
 11 14 1.5
 12 13 1.5 37 1.0
 13 15 1.5 38 1.0
 14 15 1.5 39 1.0
 15 40 1.0
 16 18 1.0 19 1.0 58 1.0
 17 18 1.0 41 1.0 42 1.0
 18 22 1.0
 19 20 1.0 43 1.0 44 1.0
 20 21 1.0 23 1.0 27 1.0
 21 22 1.0 45 1.0 46 1.0
 22 47 1.0 48 1.0
 23 24 1.0 25 1.0 26 1.0
 24 49 1.0 50 1.0 51 1.0
 25 52 1.0 53 1.0 54 1.0
 26 55 1.0 56 1.0 57 1.0
 27 28 1.0
 28
 29
 30
 31
 32
 33
 34
 35
 36
 37
 38
 39
 40
 41
 42
 43
 44
 45
 46
 47
 48
 49
 50
 51
 52
 53
 54
 55
 56
 57
 58

