# opt uff

butaclahol-1f

0 1
 C                 -3.41053061    0.45506122   -1.14728061
 C                 -3.49553061    1.44606122   -0.17628061
 C                 -2.37053061    1.79106122    0.57771939
 C                 -2.21653061   -0.24893878   -1.27828061
 C                 -1.09053061    0.05206122   -0.49928061
 C                 -1.12953061    1.17406122    0.35171939
 C                 -2.50753061    2.86306122    1.62271939
 C                 -1.93053061    4.15106122    1.05371939
 C                 -0.42553061    4.21906122    0.91671939
 C                  0.09346939    1.64006122    1.12871939
 C                  0.47746939    3.13106122    0.96171939
 C                  0.05246939    5.52606122    0.72971939
 C                  1.40646939    5.83006122    0.62971939
 C                  1.84146939    3.48806122    0.92571939
 C                  2.31446939    4.78806122    0.75371939
 C                  0.14846939   -0.82993878   -0.57328061
 C                  1.29446939    0.71406122    0.82571939
 N                  0.94146939   -0.68293878    0.64171939
 C                 -0.20253061   -2.32593878   -0.76428061
 C                  1.00646939   -3.28693878   -0.79428061
 C                  1.83046939   -2.99893878    0.47371939
 C                  2.14446939   -1.50493878    0.61571939
 C                  0.61646939   -4.79693878   -0.96328061
 C                 -0.44253061   -5.25693878    0.06471939
 C                  1.85046939   -5.71793878   -0.79528061
 C                  0.03646939   -5.07993878   -2.37128061
 O                  1.81146939   -2.91593878   -1.89828061
 H                  1.27746939   -2.95393878   -2.67228061
 H                 -4.28853061    0.19606122   -1.76228061
 H                 -4.45653061    1.96506122   -0.02628061
 H                 -2.20653061   -1.05993878   -2.02028061
 H                 -2.02553061    2.58306122    2.58771939
 H                 -3.58553061    3.01306122    1.87271939
 H                 -2.24653061    4.96906122    1.74471939
 H                 -2.39253061    4.37106122    0.06171939
 H                 -0.13853061    1.48606122    2.20871939
 H                 -0.65853061    6.36706122    0.66771939
 H                  1.74946939    6.87006122    0.49371939
 H                  2.64246939    2.74606122    1.04571939
 H                  3.39846939    4.99506122    0.72471939
 H                  0.73246939   -0.48993878   -1.46228061
 H                  2.01346939    0.78806122    1.67671939
 H                  1.80846939    1.05206122   -0.10628061
 H                 -0.88653061   -2.60693878    0.06771939
 H                 -0.74353061   -2.47693878   -1.72228061
 H                  2.79646939   -3.55393878    0.45271939
 H                  1.27146939   -3.33093878    1.37871939
 H                  2.70946939   -1.37093878    1.57071939
 H                  2.82246939   -1.17593878   -0.20728061
 H                 -0.63453061   -6.35193878   -0.01628061
 H                 -1.42653061   -4.76193878   -0.09328061
 H                 -0.12353061   -5.06693878    1.11271939
 H                  1.60546939   -6.77693878   -1.03728061
 H                  2.22946939   -5.72393878    0.25071939
 H                  2.68646939   -5.41793878   -1.46628061
 H                 -0.24953061   -6.15093878   -2.48628061
 H                  0.77046939   -4.86293878   -3.18028061
 H                 -0.88353061   -4.48993878   -2.57828061

 1 2 1.5 4 1.5 29 1.0
 2 3 1.5 30 1.0
 3 6 1.5 7 1.0
 4 5 1.5 31 1.0
 5 6 1.5 16 1.0
 6 10 1.0
 7 8 1.0 32 1.0 33 1.0
 8 9 1.0 34 1.0 35 1.0
 9 11 1.5 12 1.5
 10 11 1.0 17 1.0 36 1.0
 11 14 1.5
 12 13 1.5 37 1.0
 13 15 1.5 38 1.0
 14 15 1.5 39 1.0
 15 40 1.0
 16 18 1.0 19 1.0 41 1.0
 17 18 1.0 42 1.0 43 1.0
 18 22 1.0
 19 20 1.0 44 1.0 45 1.0
 20 21 1.0 23 1.0 27 1.0
 21 22 1.0 46 1.0 47 1.0
 22 48 1.0 49 1.0
 23 24 1.0 25 1.0 26 1.0
 24 50 1.0 51 1.0 52 1.0
 25 53 1.0 54 1.0 55 1.0
 26 56 1.0 57 1.0 58 1.0
 27 28 1.0
 28
 29
 30
 31
 32
 33
 34
 35
 36
 37
 38
 39
 40
 41
 42
 43
 44
 45
 46
 47
 48
 49
 50
 51
 52
 53
 54
 55
 56
 57
 58

