# opt uff

butaclahol-1e

0 1
 C                 -3.11969898    0.62300510   -1.79248469
 C                 -3.25969898    1.66200510   -0.88048469
 C                 -2.24369898    1.99200510    0.02651531
 C                 -1.97269898   -0.15899490   -1.72848469
 C                 -0.95569898    0.10700510   -0.80348469
 C                 -1.03169898    1.26700510   -0.00148469
 C                 -2.60169898    3.13400510    0.95951531
 C                 -1.71169898    3.39800510    2.17551531
 C                 -0.41269898    3.95300510    1.65651531
 C                  0.16730102    1.61600510    0.86751531
 C                  0.47530102    3.10800510    0.97551531
 C                 -0.14169898    5.31900510    1.79551531
 C                  1.02430102    5.87700510    1.27551531
 C                  1.63730102    3.69500510    0.44951531
 C                  1.91630102    5.05500510    0.59251531
 C                  0.22730102   -0.85599490   -0.74748469
 C                  1.41430102    0.80900510    0.45651531
 N                  1.09430102   -0.60099490    0.39551531
 C                 -0.20669898   -2.33899490   -0.68348469
 C                  0.97130102   -3.33999490   -0.70748469
 C                  1.95230102   -2.91899490    0.40351531
 C                  2.29330102   -1.42299490    0.34651531
 C                  0.52730102   -4.84199490   -0.61848469
 C                 -0.43369898   -5.10899490    0.56351531
 C                  1.74730102   -5.77899490   -0.43948469
 C                 -0.20069898   -5.29599490   -1.90848469
 O                  1.65230102   -3.15899490   -1.93548469
 H                  1.02530102   -3.25499490   -2.63148469
 H                 -3.91769898    0.39800510   -2.51948469
 H                 -4.19869898    2.24100510   -0.89648469
 H                 -1.89169898   -0.99199490   -2.44348469
 H                 -3.62069898    2.92000510    1.36151531
 H                 -2.68869898    4.06700510    0.35351531
 H                 -1.57769898    2.49000510    2.80551531
 H                 -2.20569898    4.14400510    2.84151531
 H                 -0.07669898    1.24600510    1.89151531
 H                 -0.86069898    5.98000510    2.30751531
 H                  1.23030102    6.95600510    1.38751531
 H                  2.38830102    3.10800510   -0.09748469
 H                  2.83930102    5.48100510    0.16551531
 H                  0.79030102   -0.68499490   -1.69748469
 H                  2.21130102    0.98600510    1.21851531
 H                  1.80530102    1.12400510   -0.53948469
 H                 -0.79769898   -2.46199490    0.25351531
 H                 -0.87769898   -2.59499490   -1.53048469
 H                  2.90630102   -3.49299490    0.32851531
 H                  1.50830102   -3.13699490    1.40151531
 H                  2.94630102   -1.18899490    1.22251531
 H                  2.88830102   -1.19099490   -0.56948469
 H                 -0.65969898   -6.19499490    0.66251531
 H                 -1.41569898   -4.60299490    0.43051531
 H                 -0.00669898   -4.78199490    1.53651531
 H                  1.45230102   -6.85099490   -0.49948469
 H                  2.23230102   -5.65099490    0.55351531
 H                  2.51630102   -5.61199490   -1.22648469
 H                 -0.52869898   -6.35899490   -1.83648469
 H                  0.45430102   -5.22899490   -2.80648469
 H                 -1.11769898   -4.69999490   -2.10948469

 1 2 1.5 4 1.5 29 1.0
 2 3 1.5 30 1.0
 3 6 1.5 7 1.0
 4 5 1.5 31 1.0
 5 6 1.5 16 1.0
 6 10 1.0
 7 8 1.0 32 1.0 33 1.0
 8 9 1.0 34 1.0 35 1.0
 9 11 1.5 12 1.5
 10 11 1.0 17 1.0 36 1.0
 11 14 1.5
 12 13 1.5 37 1.0
 13 15 1.5 38 1.0
 14 15 1.5 39 1.0
 15 40 1.0
 16 18 1.0 19 1.0 41 1.0
 17 18 1.0 42 1.0 43 1.0
 18 22 1.0
 19 20 1.0 44 1.0 45 1.0
 20 21 1.0 23 1.0 27 1.0
 21 22 1.0 46 1.0 47 1.0
 22 48 1.0 49 1.0
 23 24 1.0 25 1.0 26 1.0
 24 50 1.0 51 1.0 52 1.0
 25 53 1.0 54 1.0 55 1.0
 26 56 1.0 57 1.0 58 1.0
 27 28 1.0
 28
 29
 30
 31
 32
 33
 34
 35
 36
 37
 38
 39
 40
 41
 42
 43
 44
 45
 46
 47
 48
 49
 50
 51
 52
 53
 54
 55
 56
 57
 58

