# opt uff

Butaclahol-1a

0 1
 C                 -3.12754592    0.78329592   -2.08004592
 C                 -3.39654592    1.64829592   -1.02404592
 C                 -2.50354592    1.82029592    0.04295408
 C                 -1.93054592    0.07529592   -2.07904592
 C                 -1.01854592    0.21329592   -1.02704592
 C                 -1.30354592    1.07829592    0.04395408
 C                 -2.94354592    2.83629592    1.08495408
 C                 -2.02754592    3.23029592    2.24995408
 C                 -0.65954592    3.62529592    1.74595408
 C                 -0.29154592    1.20529592    1.16095408
 C                  0.19045408    2.64529592    1.20895408
 C                 -0.24754592    4.96129592    1.79295408
 C                  1.00445408    5.34329592    1.31195408
 C                  1.43745408    3.04629592    0.71395408
 C                  1.84945408    4.37829592    0.76695408
 C                  0.26245408   -0.60170408   -1.09104592
 C                  0.82445408    0.14729592    1.11195408
 N                  1.30545408   -0.04870408   -0.24304592
 C                 -0.04554592   -2.08870408   -0.80604592
 C                  1.20145408   -3.00070408   -0.82404592
 C                  2.28545408   -2.33970408    0.05295408
 C                  2.50945408   -0.86270408   -0.30604592
 C                  0.89845408   -4.48870408   -0.43204592
 C                  0.55245408   -4.65570408    1.06595408
 C                  2.11345408   -5.40370408   -0.72304592
 C                 -0.29454592   -5.05270408   -1.24204592
 O                  1.68145408   -2.98970408   -2.15704592
 H                  2.53545408   -3.38570408   -2.16104592
 H                 -3.84454592    0.67029592   -2.91004592
 H                 -4.34154592    2.21629592   -1.04604592
 H                 -1.71254592   -0.60070408   -2.92204592
 H                 -3.91054592    2.47929592    1.51495408
 H                 -3.16854592    3.77729592    0.52795408
 H                 -1.96054592    2.42529592    3.01595408
 H                 -2.49254592    4.08029592    2.80195408
 H                 -0.91754592    5.73429592    2.20495408
 H                  1.31845408    6.39929592    1.35095408
 H                  2.13145408    2.32029592    0.26395408
 H                  2.83645408    4.67029592    0.37195408
 H                  0.44445408   -0.81370408    1.52895408
 H                  1.65245408    0.45529592    1.79395408
 H                 -0.57554592   -2.17870408    0.16695408
 H                 -0.76554592   -2.44470408   -1.57904592
 H                  2.01145408   -2.40070408    1.12895408
 H                  3.25445408   -2.87870408   -0.05704592
 H                  2.93345408   -0.79270408   -1.33604592
 H                  3.29345408   -0.42270408    0.35595408
 H                  0.25145408   -5.70370408    1.29595408
 H                 -0.29354592   -4.00670408    1.38095408
 H                  1.41945408   -4.43570408    1.72795408
 H                  1.90545408   -6.45970408   -0.43704592
 H                  3.01745408   -5.09670408   -0.15104592
 H                  2.38145408   -5.41570408   -1.80304592
 H                 -0.43654592   -6.14270408   -1.05704592
 H                 -0.14854592   -4.92970408   -2.33904592
 H                 -1.25754592   -4.56870408   -0.96404592
 H                 -0.81954592    0.96929592    2.11195408
 H                  0.63245408   -0.52170408   -2.14304592

 1 2 1.5 4 1.5 29 1.0
 2 3 1.5 30 1.0
 3 6 1.5 7 1.0
 4 5 1.5 31 1.0
 5 6 1.5 16 1.0
 6 10 1.0
 7 8 1.0 32 1.0 33 1.0
 8 9 1.0 34 1.0 35 1.0
 9 11 1.5 12 1.5
 10 11 1.0 17 1.0 57 1.0
 11 14 1.5
 12 13 1.5 36 1.0
 13 15 1.5 37 1.0
 14 15 1.5 38 1.0
 15 39 1.0
 16 18 1.0 19 1.0 58 1.0
 17 18 1.0 40 1.0 41 1.0
 18 22 1.0
 19 20 1.0 42 1.0 43 1.0
 20 21 1.0 23 1.0 27 1.0
 21 22 1.0 44 1.0 45 1.0
 22 46 1.0 47 1.0
 23 24 1.0 25 1.0 26 1.0
 24 48 1.0 49 1.0 50 1.0
 25 51 1.0 52 1.0 53 1.0
 26 54 1.0 55 1.0 56 1.0
 27 28 1.0
 28
 29
 30
 31
 32
 33
 34
 35
 36
 37
 38
 39
 40
 41
 42
 43
 44
 45
 46
 47
 48
 49
 50
 51
 52
 53
 54
 55
 56
 57
 58

