# opt uff

butaclahol-1b

0 1
 C                 -3.26925000    0.71301531   -1.82019388
 C                 -3.56625000    1.48201531   -0.69619388
 C                 -2.62525000    1.63201531    0.32680612
 C                 -2.03125000    0.08001531   -1.90819388
 C                 -1.07825000    0.21101531   -0.89119388
 C                 -1.37325000    1.01101531    0.22280612
 C                 -2.93825000    2.48001531    1.53280612
 C                 -2.15625000    3.79301531    1.46880612
 C                 -0.64525000    3.78601531    1.30680612
 C                 -0.34725000    1.22501531    1.31480612
 C                  0.19075000    2.65101531    1.21980612
 C                 -0.06925000    5.06401531    1.22380612
 C                  1.29875000    5.26401531    1.06080612
 C                  1.56775000    2.87701531    1.05880612
 C                  2.12775000    4.15101531    0.97680612
 C                  0.23575000   -0.54098469   -1.00619388
 C                  0.68875000    0.08401531    1.26980612
 N                  1.23475000   -0.03998469   -0.07219388
 C                 -0.04425000   -2.05498469   -0.85219388
 C                  1.21875000   -2.94398469   -0.86819388
 C                  2.22575000   -2.33498469    0.12780612
 C                  2.44975000   -0.83798469   -0.12519388
 C                  0.92675000   -4.46398469   -0.61419388
 C                  0.51375000   -4.75798469    0.84680612
 C                  2.17375000   -5.33098469   -0.91719388
 C                 -0.21425000   -4.97998469   -1.52519388
 O                  1.77675000   -2.81798469   -2.16419388
 H                  2.64375000   -3.18398469   -2.14419388
 H                 -4.01125000    0.60001531   -2.62919388
 H                 -4.54825000    1.97901531   -0.63019388
 H                 -1.81225000   -0.53698469   -2.79519388
 H                 -2.74325000    1.92801531    2.48080612
 H                 -4.03025000    2.70501531    1.56980612
 H                 -2.39225000    4.37201531    2.39280612
 H                 -2.56725000    4.37501531    0.60980612
 H                 -0.71325000    5.95701531    1.28480612
 H                  1.71775000    6.28301531    0.99880612
 H                  2.28475000    2.04601531    0.99280612
 H                  3.21575000    4.27901531    0.84880612
 H                  0.21075000   -0.86998469    1.59080612
 H                  1.48675000    0.27101531    2.02580612
 H                 -0.61625000   -2.23298469    0.08480612
 H                 -0.71325000   -2.36898469   -1.68519388
 H                  1.86975000   -2.46098469    1.17380612
 H                  3.20775000   -2.85698469    0.05680612
 H                  2.92475000   -0.69598469   -1.12519388
 H                  3.19475000   -0.43598469    0.60180612
 H                  0.22275000   -5.82498469    0.97680612
 H                 -0.35925000   -4.14898469    1.17080612
 H                  1.34475000   -4.57798469    1.56580612
 H                  1.97475000   -6.41098469   -0.72419388
 H                  3.04375000   -5.05498469   -0.28219388
 H                  2.49075000   -5.25398469   -1.98219388
 H                 -0.34025000   -6.08298469   -1.43819388
 H                 -0.01825000   -4.76198469   -2.60019388
 H                 -1.19925000   -4.53698469   -1.25519388
 H                 -0.81225000    1.13301531    2.32180612
 H                  0.62775000   -0.35798469   -2.03619388

 1 2 1.5 4 1.5 29 1.0
 2 3 1.5 30 1.0
 3 6 1.5 7 1.0
 4 5 1.5 31 1.0
 5 6 1.5 16 1.0
 6 10 1.0
 7 8 1.0 32 1.0 33 1.0
 8 9 1.0 34 1.0 35 1.0
 9 11 1.5 12 1.5
 10 11 1.0 17 1.0 57 1.0
 11 14 1.5
 12 13 1.5 36 1.0
 13 15 1.5 37 1.0
 14 15 1.5 38 1.0
 15 39 1.0
 16 18 1.0 19 1.0 58 1.0
 17 18 1.0 40 1.0 41 1.0
 18 22 1.0
 19 20 1.0 42 1.0 43 1.0
 20 21 1.0 23 1.0 27 1.0
 21 22 1.0 44 1.0 45 1.0
 22 46 1.0 47 1.0
 23 24 1.0 25 1.0 26 1.0
 24 48 1.0 49 1.0 50 1.0
 25 51 1.0 52 1.0 53 1.0
 26 54 1.0 55 1.0 56 1.0
 27 28 1.0
 28
 29
 30
 31
 32
 33
 34
 35
 36
 37
 38
 39
 40
 41
 42
 43
 44
 45
 46
 47
 48
 49
 50
 51
 52
 53
 54
 55
 56
 57
 58

