# opt uff

octoclothepin-3a

0 1
 C                 -0.82729121    3.19580769    1.67338462
 C                 -0.34429121    2.10080769    2.38638462
 C                 -1.09429121    3.04380769    0.31538462
 C                 -0.86329121    1.81180769   -0.29861538
 C                 -0.35729121    0.69680769    0.39138462
 C                 -0.11229121    0.86580769    1.76738462
 S                  0.41770879   -0.42519231    2.80938462
 C                 -0.64529121   -1.77219231    2.53638462
 C                 -0.65129121   -2.36519231    1.27138462
 C                 -1.51029121   -2.21119231    3.54138462
 C                 -2.39129121   -3.26419231    3.28838462
 C                 -1.54429121   -3.41519231    1.02838462
 C                 -2.40929121   -3.86419231    2.02838462
 C                 -0.13829121   -0.56219231   -0.46261538
 C                  0.30470879   -1.88019231    0.20438462
 N                  0.67570879   -0.20719231   -1.63361538
 C                  2.08370879   -0.01519231   -1.32261538
 C                  2.82770879    0.55280769   -2.54261538
 N                  2.69570879   -0.33219231   -3.69061538
 C                  0.54570879   -1.11319231   -2.76361538
 C                  1.28770879   -0.54819231   -3.98761538
 C                  3.40770879    0.18980769   -4.84661538
 Cl                -1.70929121    4.37080769   -0.59861538
 H                 -1.00229121    4.15680769    2.18638462
 H                 -0.15829121    2.23280769    3.46638462
 H                 -1.09229121    1.72180769   -1.37361538
 H                 -1.51429121   -1.73019231    4.53438462
 H                 -3.07829121   -3.61419231    4.07738462
 H                 -1.57229121   -3.90019231    0.03838462
 H                 -3.10929121   -4.69119231    1.82238462
 H                 -1.17029121   -0.77619231   -0.83361538
 H                  1.33070879   -1.80619231    0.62838462
 H                  0.38470879   -2.69219231   -0.55161538
 H                  2.56570879   -0.97819231   -1.03161538
 H                  2.19270879    0.69380769   -0.46761538
 H                  3.90770879    0.67380769   -2.28461538
 H                  2.42470879    1.56680769   -2.78361538
 H                 -0.53129121   -1.24519231   -3.02561538
 H                  0.96570879   -2.11919231   -2.53061538
 H                  0.80470879    0.40780769   -4.30461538
 H                  1.18970879   -1.26919231   -4.83461538
 H                  3.00170879    1.17780769   -5.16761538
 H                  4.49170879    0.30780769   -4.61561538
 H                  3.33270879   -0.52019231   -5.70261538

 1 2 1.5 3 1.5 24 1.0
 2 6 1.5 25 1.0
 3 4 1.5 23 1.0
 4 5 1.5 26 1.0
 5 6 1.5 14 1.0
 6 7 1.0
 7 8 1.0
 8 9 1.5 10 1.5
 9 12 1.5 15 1.0
 10 11 1.5 27 1.0
 11 13 1.5 28 1.0
 12 13 1.5 29 1.0
 13 30 1.0
 14 15 1.0 16 1.0 31 1.0
 15 32 1.0 33 1.0
 16 17 1.0 20 1.0
 17 18 1.0 34 1.0 35 1.0
 18 19 1.0 36 1.0 37 1.0
 19 21 1.0 22 1.0
 20 21 1.0 38 1.0 39 1.0
 21 40 1.0 41 1.0
 22 42 1.0 43 1.0 44 1.0
 23
 24
 25
 26
 27
 28
 29
 30
 31
 32
 33
 34
 35
 36
 37
 38
 39
 40
 41
 42
 43
 44

