# opt uff

octoclothepin-3k

0 1
 C                  2.98743407    1.79340110    1.77635714
 C                  2.08743407    0.96340110    2.44235714
 C                  2.58743407    2.39340110    0.58635714
 C                  1.31143407    2.13940110    0.08535714
 C                  0.39643407    1.28340110    0.72235714
 C                  0.80443407    0.70640110    1.94135714
 S                 -0.20056593   -0.29359890    2.95335714
 C                 -1.22856593   -1.36359890    2.05735714
 C                 -2.13056593   -0.83159890    1.13235714
 C                 -1.16656593   -2.74159890    2.28035714
 C                 -1.99956593   -3.60559890    1.56735714
 C                 -2.95556593   -1.70859890    0.41835714
 C                 -2.89656593   -3.08559890    0.63335714
 C                 -0.94656593    1.09240110    0.01335714
 C                 -2.15656593    0.65540110    0.86535714
 N                 -0.88356593    0.21740110   -1.16664286
 C                 -0.87956593    0.93540110   -2.43264286
 C                 -0.99556593   -0.04159890   -3.61364286
 N                  0.08143407   -1.01959890   -3.59764286
 C                  0.21043407   -0.74359890   -1.15464286
 C                  0.08143407   -1.72759890   -2.32764286
 C                 -0.02056593   -1.94059890   -4.71864286
 Cl                 3.66443407    3.44440110   -0.25764286
 H                  3.98943407    1.97640110    2.20035714
 H                  2.41743407    0.51840110    3.39635714
 H                  1.02143407    2.63540110   -0.85464286
 H                 -0.45956593   -3.16359890    3.01435714
 H                 -1.94556593   -4.69359890    1.73635714
 H                 -3.65256593   -1.31759890   -0.34164286
 H                 -3.54756593   -3.76459890    0.05735714
 H                 -1.23556593    2.12440110   -0.30464286
 H                 -3.09456593    0.88940110    0.30735714
 H                 -2.23656593    1.24840110    1.80535714
 H                  0.05143407    1.53940110   -2.54364286
 H                 -1.74856593    1.63540110   -2.47464286
 H                 -0.96056593    0.53740110   -4.56764286
 H                 -1.98656593   -0.55659890   -3.57164286
 H                  0.20743407   -1.32759890   -0.20464286
 H                  1.19743407   -0.22859890   -1.23264286
 H                 -0.85656593   -2.32359890   -2.21064286
 H                  0.93743407   -2.44359890   -2.29664286
 H                 -0.96956593   -2.52459890   -4.68664286
 H                  0.02243407   -1.38459890   -5.68464286
 H                  0.83643407   -2.65359890   -4.71564286

 1 2 1.5 3 1.5 24 1.0
 2 6 1.5 25 1.0
 3 4 1.5 23 1.0
 4 5 1.5 26 1.0
 5 6 1.5 14 1.0
 6 7 1.0
 7 8 1.0
 8 9 1.5 10 1.5
 9 12 1.5 15 1.0
 10 11 1.5 27 1.0
 11 13 1.5 28 1.0
 12 13 1.5 29 1.0
 13 30 1.0
 14 15 1.0 16 1.0 31 1.0
 15 32 1.0 33 1.0
 16 17 1.0 20 1.0
 17 18 1.0 34 1.0 35 1.0
 18 19 1.0 36 1.0 37 1.0
 19 21 1.0 22 1.0
 20 21 1.0 38 1.0 39 1.0
 21 40 1.0 41 1.0
 22 42 1.0 43 1.0 44 1.0
 23
 24
 25
 26
 27
 28
 29
 30
 31
 32
 33
 34
 35
 36
 37
 38
 39
 40
 41
 42
 43
 44

