# opt uff

octoclothepin-3j

0 1
 C                  0.31315385    3.36311538    2.30163187
 C                 -0.79884615    2.53411538    2.16463187
 C                  1.31015385    3.31011538    1.33263187
 C                  1.17715385    2.42711538    0.26163187
 C                  0.07015385    1.57211538    0.11463187
 C                 -0.93984615    1.64311538    1.09163187
 S                 -2.43084615    0.74911538    1.07463187
 C                 -2.50984615   -0.66788462    0.07863187
 C                 -2.06284615   -0.65488462   -1.24736813
 C                 -3.15184615   -1.80088462    0.59063187
 C                 -3.34584615   -2.93188462   -0.20236813
 C                 -2.28884615   -1.78688462   -2.04136813
 C                 -2.92284615   -2.91888462   -1.53036813
 C                  0.07915385    0.63711538   -1.09136813
 C                 -1.29284615    0.52611538   -1.79536813
 N                  0.64715385   -0.68488462   -0.79036813
 C                  1.13315385   -1.35088462   -1.99536813
 C                  1.59515385   -2.78488462   -1.69036813
 N                  2.66415385   -2.77988462   -0.70536813
 C                  1.72815385   -0.67388462    0.18663187
 C                  2.21015385   -2.10188462    0.49763187
 C                  3.12415385   -4.12888462   -0.41436813
 Cl                 2.69915385    4.32411538    1.46263187
 H                  0.38815385    4.05011538    3.16163187
 H                 -1.58384615    2.60911538    2.93863187
 H                  1.98715385    2.40011538   -0.48536813
 H                 -3.52984615   -1.81388462    1.62663187
 H                 -3.85284615   -3.82088462    0.20963187
 H                 -1.95184615   -1.80588462   -3.09036813
 H                 -3.08384615   -3.80288462   -2.17036813
 H                  0.74315385    1.14011538   -1.83536813
 H                 -1.14784615    0.39011538   -2.89236813
 H                 -1.87984615    1.46911538   -1.70636813
 H                  1.98215385   -0.77888462   -2.44236813
 H                  0.33915385   -1.39988462   -2.77336813
 H                  1.95815385   -3.25788462   -2.63536813
 H                  0.72615385   -3.38488462   -1.32636813
 H                  1.37515385   -0.23888462    1.15063187
 H                  2.58415385   -0.05988462   -0.18236813
 H                  1.38115385   -2.67588462    0.97663187
 H                  3.04915385   -2.04788462    1.23363187
 H                  2.30815385   -4.75888462    0.00963187
 H                  3.50615385   -4.61788462   -1.34036813
 H                  3.96915385   -4.10388462    0.31263187

 1 2 1.5 3 1.5 24 1.0
 2 6 1.5 25 1.0
 3 4 1.5 23 1.0
 4 5 1.5 26 1.0
 5 6 1.5 14 1.0
 6 7 1.0
 7 8 1.0
 8 9 1.5 10 1.5
 9 12 1.5 15 1.0
 10 11 1.5 27 1.0
 11 13 1.5 28 1.0
 12 13 1.5 29 1.0
 13 30 1.0
 14 15 1.0 16 1.0 31 1.0
 15 32 1.0 33 1.0
 16 17 1.0 20 1.0
 17 18 1.0 34 1.0 35 1.0
 18 19 1.0 36 1.0 37 1.0
 19 21 1.0 22 1.0
 20 21 1.0 38 1.0 39 1.0
 21 40 1.0 41 1.0
 22 42 1.0 43 1.0 44 1.0
 23
 24
 25
 26
 27
 28
 29
 30
 31
 32
 33
 34
 35
 36
 37
 38
 39
 40
 41
 42
 43
 44

