# opt uff

octoclothepin-3h

0 1
 C                  2.85919780    2.25453297    1.48154945
 C                  2.44419780    0.93753297    1.67154945
 C                  2.07419780    3.10053297    0.70054945
 C                  0.89219780    2.62153297    0.13454945
 C                  0.46019780    1.29653297    0.31054945
 C                  1.25619780    0.46153297    1.10454945
 S                  0.89319780   -1.21646703    1.31954945
 C                 -0.71580220   -1.58546703    1.86054945
 C                 -1.85880220   -0.82346703    1.56054945
 C                 -0.84080220   -2.75946703    2.61554945
 C                 -2.07280220   -3.19746703    3.09854945
 C                 -3.08680220   -1.27946703    2.06754945
 C                 -3.20980220   -2.44546703    2.82054945
 C                 -0.87280220    0.86053297   -0.28945055
 C                 -1.91480220    0.47253297    0.77454945
 N                 -0.83680220    0.11953297   -1.55845055
 C                  0.42319780    0.26153297   -2.27245055
 C                  0.34519780   -0.35946703   -3.67745055
 N                 -0.03280220   -1.76146703   -3.60945055
 C                 -1.22780220   -1.27846703   -1.50645055
 C                 -1.30580220   -1.88646703   -2.91745055
 C                 -0.08680220   -2.36146703   -4.93345055
 Cl                 2.56119780    4.73553297    0.44754945
 H                  3.79819780    2.60853297    1.93954945
 H                  3.08619780    0.27253297    2.27554945
 H                  0.28719780    3.32053297   -0.46645055
 H                  0.04519780   -3.37646703    2.84654945
 H                 -2.14680220   -4.12446703    3.69154945
 H                 -4.00680220   -0.70146703    1.87754945
 H                 -4.19480220   -2.76846703    3.19754945
 H                 -1.29480220    1.83753297   -0.63245055
 H                 -2.90780220    0.51353297    0.26554945
 H                 -1.94280220    1.27853297    1.54754945
 H                  1.24919780   -0.23146703   -1.70745055
 H                  0.67519780    1.34253297   -2.38745055
 H                  1.34219780   -0.26346703   -4.17045055
 H                 -0.38880220    0.21253297   -4.29545055
 H                 -2.23580220   -1.38146703   -1.04045055
 H                 -0.50680220   -1.87946703   -0.91345055
 H                 -2.11580220   -1.38146703   -3.49745055
 H                 -1.58080220   -2.96546703   -2.83145055
 H                 -0.84580220   -1.86346703   -5.57945055
 H                  0.90719780   -2.29146703   -5.43245055
 H                 -0.33780220   -3.44546703   -4.85945055

 1 2 1.5 3 1.5 24 1.0
 2 6 1.5 25 1.0
 3 4 1.5 23 1.0
 4 5 1.5 26 1.0
 5 6 1.5 14 1.0
 6 7 1.0
 7 8 1.0
 8 9 1.5 10 1.5
 9 12 1.5 15 1.0
 10 11 1.5 27 1.0
 11 13 1.5 28 1.0
 12 13 1.5 29 1.0
 13 30 1.0
 14 15 1.0 16 1.0 31 1.0
 15 32 1.0 33 1.0
 16 17 1.0 20 1.0
 17 18 1.0 34 1.0 35 1.0
 18 19 1.0 36 1.0 37 1.0
 19 21 1.0 22 1.0
 20 21 1.0 38 1.0 39 1.0
 21 40 1.0 41 1.0
 22 42 1.0 43 1.0 44 1.0
 23
 24
 25
 26
 27
 28
 29
 30
 31
 32
 33
 34
 35
 36
 37
 38
 39
 40
 41
 42
 43
 44

