# opt uff

octoclothepin-3c

0 1
 C                  3.42689011    0.08345055   -0.25984615
 C                  2.72489011   -0.11754945    0.92715385
 C                  2.71389011    0.42445055   -1.40584615
 C                  1.32289011    0.52045055   -1.35284615
 C                  0.58289011    0.25845055   -0.18784615
 C                  1.32989011   -0.01954945    0.97315385
 S                  0.59389011   -0.09054945    2.55015385
 C                 -0.18810989    1.45645055    2.71315385
 C                 -1.25910989    1.74745055    1.86215385
 C                  0.31289011    2.41945055    3.59315385
 C                 -0.27510989    3.68445055    3.64415385
 C                 -1.83810989    3.02045055    1.92215385
 C                 -1.34910989    3.98545055    2.80415385
 C                 -0.94610989    0.34145055   -0.29684615
 C                 -1.80110989    0.67345055    0.95015385
 N                 -1.53810989   -0.85754945   -0.91384615
 C                 -1.35510989   -0.95454945   -2.35384615
 C                 -2.16010989   -2.13454945   -2.92484615
 N                 -1.74310989   -3.38654945   -2.31384615
 C                 -1.09910989   -2.10654945   -0.30284615
 C                 -1.88710989   -3.29854945   -0.86884615
 C                 -2.48410989   -4.51554945   -2.85484615
 Cl                 3.55189011    0.73645055   -2.88084615
 H                  4.52789011    0.01245055   -0.26984615
 H                  3.30489011   -0.32454945    1.84315385
 H                  0.79489011    0.82145055   -2.27284615
 H                  1.17889011    2.19845055    4.23915385
 H                  0.11589011    4.44945055    4.33615385
 H                 -2.69310989    3.26945055    1.27315385
 H                 -1.81210989    4.98545055    2.84015385
 H                 -1.14310989    1.21945055   -0.95984615
 H                 -2.00610989   -0.22354945    1.57515385
 H                 -2.82310989    0.96645055    0.61115385
 H                 -0.28410989   -1.11654945   -2.61484615
 H                 -1.69910989   -0.01454945   -2.84884615
 H                 -1.99910989   -2.18354945   -4.02884615
 H                 -3.25010989   -1.95954945   -2.75284615
 H                 -1.24910989   -2.08554945    0.80115385
 H                 -0.01010989   -2.27154945   -0.48184615
 H                 -2.96410989   -3.19454945   -0.59184615
 H                 -1.51110989   -4.23854945   -0.39784615
 H                 -3.57710989   -4.42154945   -2.65784615
 H                 -2.32610989   -4.59254945   -3.95584615
 H                 -2.12210989   -5.46954945   -2.40584615

 1 2 1.5 3 1.5 24 1.0
 2 6 1.5 25 1.0
 3 4 1.5 23 1.0
 4 5 1.5 26 1.0
 5 6 1.5 14 1.0
 6 7 1.0
 7 8 1.0
 8 9 1.5 10 1.5
 9 12 1.5 15 1.0
 10 11 1.5 27 1.0
 11 13 1.5 28 1.0
 12 13 1.5 29 1.0
 13 30 1.0
 14 15 1.0 16 1.0 31 1.0
 15 32 1.0 33 1.0
 16 17 1.0 20 1.0
 17 18 1.0 34 1.0 35 1.0
 18 19 1.0 36 1.0 37 1.0
 19 21 1.0 22 1.0
 20 21 1.0 38 1.0 39 1.0
 21 40 1.0 41 1.0
 22 42 1.0 43 1.0 44 1.0
 23
 24
 25
 26
 27
 28
 29
 30
 31
 32
 33
 34
 35
 36
 37
 38
 39
 40
 41
 42
 43
 44

