# opt uff

octoclothepin-3e

0 1
 C                 -0.18806044    3.01946703   -2.05125275
 C                 -1.25506044    2.12046703   -2.07325275
 C                  0.93693956    2.72246703   -1.28125275
 C                  0.99893956    1.52846703   -0.56025275
 C                 -0.04406044    0.59246703   -0.60825275
 C                 -1.18106044    0.92546703   -1.35325275
 S                 -2.56806044   -0.11653297   -1.27125275
 C                 -3.12206044   -0.07553297    0.38074725
 C                 -2.26006044   -0.22853297    1.48374725
 C                 -4.48606044    0.17346703    0.57774725
 C                 -5.03006044    0.27246703    1.85674725
 C                 -2.83506044   -0.11653297    2.76074725
 C                 -4.19306044    0.12946703    2.95974725
 C                  0.02193956   -0.72653297    0.15874725
 C                 -0.76206044   -0.52453297    1.47174725
 N                  1.41793956   -1.16653297    0.32174725
 C                  1.61193956   -2.26853297    1.25474725
 C                  3.09293956   -2.67253297    1.36274725
 N                  3.64393956   -3.03553297    0.06874725
 C                  1.98593956   -1.54953297   -0.97025275
 C                  3.47093956   -1.92553297   -0.85325275
 C                  5.04093956   -3.42753297    0.17374725
 Cl                 2.24893956    3.84046703   -1.21225275
 H                 -0.25706044    3.96446703   -2.61625275
 H                 -2.16206044    2.37946703   -2.64525275
 H                  1.88993956    1.32846703    0.05574725
 H                 -5.16306044    0.30546703   -0.28425275
 H                 -6.10706044    0.47046703    1.99474725
 H                 -2.19906044   -0.23053297    3.65474725
 H                 -4.60206044    0.20846703    3.98074725
 H                 -0.49106044   -1.54353297   -0.39925275
 H                 -0.24406044    0.26546703    2.06574725
 H                 -0.71306044   -1.47153297    2.05574725
 H                  0.99693956   -3.14853297    0.94974725
 H                  1.30693956   -1.96353297    2.28174725
 H                  3.17993956   -3.54053297    2.06074725
 H                  3.67593956   -1.82853297    1.80674725
 H                  1.89793956   -0.71553297   -1.70525275
 H                  1.42693956   -2.41753297   -1.39925275
 H                  4.05493956   -1.03553297   -0.51325275
 H                  3.85393956   -2.21353297   -1.86225275
 H                  5.67393956   -2.59453297    0.55874725
 H                  5.14893956   -4.30153297    0.85574725
 H                  5.43293956   -3.73953297   -0.82225275

 1 2 1.5 3 1.5 24 1.0
 2 6 1.5 25 1.0
 3 4 1.5 23 1.0
 4 5 1.5 26 1.0
 5 6 1.5 14 1.0
 6 7 1.0
 7 8 1.0
 8 9 1.5 10 1.5
 9 12 1.5 15 1.0
 10 11 1.5 27 1.0
 11 13 1.5 28 1.0
 12 13 1.5 29 1.0
 13 30 1.0
 14 15 1.0 16 1.0 31 1.0
 15 32 1.0 33 1.0
 16 17 1.0 20 1.0
 17 18 1.0 34 1.0 35 1.0
 18 19 1.0 36 1.0 37 1.0
 19 21 1.0 22 1.0
 20 21 1.0 38 1.0 39 1.0
 21 40 1.0 41 1.0
 22 42 1.0 43 1.0 44 1.0
 23
 24
 25
 26
 27
 28
 29
 30
 31
 32
 33
 34
 35
 36
 37
 38
 39
 40
 41
 42
 43
 44

