# opt uff

octoclothepin-3d

0 1
 C                 -0.45883516    3.14256593    2.13713736
 C                 -1.35683516    2.08656593    2.28013736
 C                  0.48716484    3.08956593    1.11313736
 C                  0.53316484    1.98756593    0.25713736
 C                 -0.34383516    0.90156593    0.40013736
 C                 -1.30483516    0.98756593    1.41813736
 S                 -2.48083516   -0.27643407    1.61013736
 C                 -1.69383516   -1.77043407    2.02113736
 C                 -0.54183516   -2.23543407    1.36413736
 C                 -2.26283516   -2.51243407    3.06313736
 C                 -1.70983516   -3.72143407    3.48213736
 C                 -0.00083516   -3.45343407    1.81013736
 C                 -0.56483516   -4.19443407    2.84813736
 C                 -0.30383516   -0.31943407   -0.51986264
 C                  0.21116484   -1.57043407    0.22013736
 N                  0.38316484   -0.03543407   -1.79086264
 C                  1.81116484   -0.33943407   -1.79786264
 C                  2.46416484    0.15056593   -3.09986264
 N                  1.85616484   -0.50243407   -4.24886264
 C                 -0.23083516   -0.70143407   -2.93386264
 C                  0.42316484   -0.25243407   -4.25186264
 C                  2.47416484   -0.07343407   -5.49386264
 Cl                 1.59216484    4.39756593    0.90113736
 H                 -0.51383516    4.00756593    2.81913736
 H                 -2.11583516    2.14156593    3.08013736
 H                  1.28216484    2.00256593   -0.54686264
 H                 -3.16783516   -2.15143407    3.58213736
 H                 -2.16983516   -4.29343407    4.30513736
 H                  0.90916484   -3.85243407    1.33113736
 H                 -0.10783516   -5.14643407    3.16613736
 H                 -1.36583516   -0.51643407   -0.79286264
 H                  1.22516484   -1.34343407    0.62313736
 H                  0.31516484   -2.37743407   -0.54086264
 H                  1.99316484   -1.43643407   -1.72186264
 H                  2.32916484    0.13556593   -0.93186264
 H                  3.55616484   -0.08343407   -3.07086264
 H                  2.36016484    1.25956593   -3.17686264
 H                 -1.31583516   -0.44143407   -2.99386264
 H                 -0.15783516   -1.81043407   -2.82886264
 H                  0.22216484    0.83456593   -4.40986264
 H                 -0.05083516   -0.80643407   -5.09786264
 H                  2.35316484    1.02356593   -5.65486264
 H                  3.56216484   -0.31443407   -5.49086264
 H                  2.02216484   -0.61243407   -6.35786264

 1 2 1.5 3 1.5 24 1.0
 2 6 1.5 25 1.0
 3 4 1.5 23 1.0
 4 5 1.5 26 1.0
 5 6 1.5 14 1.0
 6 7 1.0
 7 8 1.0
 8 9 1.5 10 1.5
 9 12 1.5 15 1.0
 10 11 1.5 27 1.0
 11 13 1.5 28 1.0
 12 13 1.5 29 1.0
 13 30 1.0
 14 15 1.0 16 1.0 31 1.0
 15 32 1.0 33 1.0
 16 17 1.0 20 1.0
 17 18 1.0 34 1.0 35 1.0
 18 19 1.0 36 1.0 37 1.0
 19 21 1.0 22 1.0
 20 21 1.0 38 1.0 39 1.0
 21 40 1.0 41 1.0
 22 42 1.0 43 1.0 44 1.0
 23
 24
 25
 26
 27
 28
 29
 30
 31
 32
 33
 34
 35
 36
 37
 38
 39
 40
 41
 42
 43
 44

