# opt uff

tefludazine-2g

0 1
 C                  1.84205140   -0.12346729   -2.96370093
 C                  2.29405140    0.59953271   -1.85170093
 C                  1.47205140    0.65853271   -0.71770093
 C                  0.31505140   -0.11846729   -0.62570093
 C                 -0.12394860   -0.79346729   -1.76170093
 C                  0.63105140   -0.81546729   -2.93170093
 C                 -1.49594860   -1.37646729   -1.59470093
 C                 -0.69694860   -0.18246729    0.50029907
 C                 -1.75394860   -1.16446729   -0.08670093
 C                 -2.48694860   -0.64146729   -2.47170093
 C                 -2.65394860    0.74453271   -2.37670093
 C                 -3.56894860    1.41853271   -3.18670093
 C                 -4.34194860    0.71553271   -4.11270093
 C                 -3.26894860   -1.33646729   -3.40170093
 C                 -4.18594860   -0.66846729   -4.21470093
 F                 -5.20994860    1.35053271   -4.88170093
 C                  3.52605140    1.46653271   -1.95270093
 F                  4.63105140    0.74353271   -1.51070093
 F                  3.79305140    1.86953271   -3.25770093
 F                  3.44305140    2.61053271   -1.16470093
 N                 -0.21194860   -0.70046729    1.78729907
 C                  0.97305140   -0.03946729    2.30829907
 C                  1.40805140   -0.60146729    3.67429907
 N                  0.34405140   -0.51146729    4.65929907
 C                 -0.82794860   -1.20146729    4.14229907
 C                 -1.26594860   -0.61046729    2.79429907
 C                  0.72905140   -1.04546729    5.96329907
 C                  1.89805140   -0.29446729    6.62229907
 O                  2.02105140   -0.71246729    7.96429907
 H                  2.42005140   -0.11546729   -3.90170093
 H                  1.73105140    1.34953271    0.09829907
 H                  0.25205140   -1.33346729   -3.82870093
 H                 -1.46394860   -2.46346729   -1.84770093
 H                 -1.11994860    0.84453271    0.61629907
 H                 -2.80194860   -0.84446729    0.12429907
 H                 -1.62594860   -2.16446729    0.39329907
 H                 -2.05594860    1.32653271   -1.65570093
 H                 -3.68294860    2.51153271   -3.09670093
 H                 -3.16594860   -2.42946729   -3.50170093
 H                 -4.79094860   -1.23446729   -4.94170093
 H                  0.80005140    1.06053271    2.38829907
 H                  1.83205140   -0.22746729    1.62529907
 H                  2.29305140   -0.01346729    4.01229907
 H                  1.73505140   -1.66346729    3.55629907
 H                 -1.67294860   -1.10046729    4.86629907
 H                 -0.62094860   -2.29146729    4.02029907
 H                 -1.56694860    0.45453271    2.94429907
 H                 -2.17694860   -1.16246729    2.46329907
 H                 -0.14594860   -0.96346729    6.65129907
 H                  0.98505140   -2.12946729    5.88329907
 H                  2.87405140   -0.50446729    6.12529907
 H                  1.71805140    0.80753271    6.62729907
 H                  2.74005140   -0.23546729    8.34329907

 1 2 1.5 6 1.5 30 1.0
 2 3 1.5 17 1.0
 3 4 1.5 31 1.0
 4 5 1.5 8 1.0
 5 6 1.5 7 1.0
 6 32 1.0
 7 9 1.0 10 1.0 33 1.0
 8 9 1.0 21 1.0 34 1.0
 9 35 1.0 36 1.0
 10 11 1.5 14 1.5
 11 12 1.5 37 1.0
 12 13 1.5 38 1.0
 13 15 1.5 16 1.0
 14 15 1.5 39 1.0
 15 40 1.0
 16
 17 18 1.0 19 1.0 20 1.0
 18
 19
 20
 21 22 1.0 26 1.0
 22 23 1.0 41 1.0 42 1.0
 23 24 1.0 43 1.0 44 1.0
 24 25 1.0 27 1.0
 25 26 1.0 45 1.0 46 1.0
 26 47 1.0 48 1.0
 27 28 1.0 49 1.0 50 1.0
 28 29 1.0 51 1.0 52 1.0
 29 53 1.0
 30
 31
 32
 33
 34
 35
 36
 37
 38
 39
 40
 41
 42
 43
 44
 45
 46
 47
 48
 49
 50
 51
 52
 53

