# opt uff

tefludazine-2a

0 1
 C                  1.85037850   -1.19545327   -2.61835514
 C                  2.71937850   -0.38245327   -1.87535514
 C                  2.18337850    0.39854673   -0.84235514
 C                  0.80437850    0.43154673   -0.64435514
 C                 -0.04762150   -0.32945327   -1.43635514
 C                  0.46737850   -1.16845327   -2.42035514
 C                 -1.48262150   -0.16345327   -1.02435514
 C                  0.05237850    1.21954673    0.39664486
 C                 -1.40762150    1.08354673   -0.11035514
 C                 -2.44562150    0.00054673   -2.17635514
 C                 -2.13962150    0.83254673   -3.25935514
 C                 -3.03562150    0.99154673   -4.31835514
 C                 -4.26262150    0.32754673   -4.30935514
 C                 -3.68662150   -0.64645327   -2.16835514
 C                 -4.58562150   -0.49045327   -3.22535514
 F                 -5.11362150    0.47754673   -5.31135514
 C                  4.21337850   -0.48545327   -2.05835514
 F                  4.91537850   -0.23445327   -0.88335514
 F                  4.60937850   -1.73345327   -2.53035514
 F                  4.62737850    0.45854673   -2.99435514
 N                  0.33837850    0.74854673    1.74864486
 C                 -0.22462150    1.62454673    2.76464486
 C                  0.18637850    1.17454673    4.17664486
 N                 -0.22062150   -0.19745327    4.43764486
 C                  0.33637850   -1.06745327    3.41064486
 C                 -0.08862150   -0.61745327    2.00464486
 C                  0.16037850   -0.65745327    5.76964486
 C                 -0.48362150    0.14054673    6.91464486
 O                 -0.26462150   -0.53245327    8.13464486
 H                  2.25537850   -1.87545327   -3.38535514
 H                  2.83237850    0.99554673   -0.18235514
 H                 -0.20362150   -1.80945327   -3.01535514
 H                 -1.74462150   -1.06545327   -0.42235514
 H                  0.39137850    2.28054673    0.30764486
 H                 -1.62162150    1.98554673   -0.73235514
 H                 -2.18862150    1.07554673    0.68464486
 H                 -1.18062150    1.37454673   -3.28435514
 H                 -2.77362150    1.64754673   -5.16535514
 H                 -3.96662150   -1.29045327   -1.31735514
 H                 -5.55662150   -1.01245327   -3.20235514
 H                 -1.33862150    1.64754673    2.69764486
 H                  0.13837850    2.66854673    2.60564486
 H                 -0.29962150    1.86554673    4.90464486
 H                  1.29237850    1.28054673    4.29564486
 H                 -0.01762150   -2.11445327    3.56964486
 H                  1.45137850   -1.07945327    3.47364486
 H                 -1.19762150   -0.71145327    1.91864486
 H                  0.37137850   -1.30945327    1.25964486
 H                 -0.16562150   -1.71945327    5.88464486
 H                  1.27037850   -0.64045327    5.88764486
 H                 -0.04362150    1.16054673    7.02264486
 H                 -1.58762150    0.23154673    6.77264486
 H                 -0.67062150   -0.02345327    8.81464486

 1 2 1.5 6 1.5 30 1.0
 2 3 1.5 17 1.0
 3 4 1.5 31 1.0
 4 5 1.5 8 1.0
 5 6 1.5 7 1.0
 6 32 1.0
 7 9 1.0 10 1.0 33 1.0
 8 9 1.0 21 1.0 34 1.0
 9 35 1.0 36 1.0
 10 11 1.5 14 1.5
 11 12 1.5 37 1.0
 12 13 1.5 38 1.0
 13 15 1.5 16 1.0
 14 15 1.5 39 1.0
 15 40 1.0
 16
 17 18 1.0 19 1.0 20 1.0
 18
 19
 20
 21 22 1.0 26 1.0
 22 23 1.0 41 1.0 42 1.0
 23 24 1.0 43 1.0 44 1.0
 24 25 1.0 27 1.0
 25 26 1.0 45 1.0 46 1.0
 26 47 1.0 48 1.0
 27 28 1.0 49 1.0 50 1.0
 28 29 1.0 51 1.0 52 1.0
 29 53 1.0
 30
 31
 32
 33
 34
 35
 36
 37
 38
 39
 40
 41
 42
 43
 44
 45
 46
 47
 48
 49
 50
 51
 52
 53

