# opt uff

tefludazine-2d

0 1
 C                  1.40210280    2.65592991   -0.78190187
 C                  1.17210280    1.27392991   -0.76090187
 C                  0.28110280    0.73592991    0.16609813
 C                  0.81110280    3.44892991    0.21309813
 C                 -0.06689720    2.90992991    1.15809813
 C                 -0.33189720    1.54492991    1.11709813
 C                 -1.36089720   -0.57407009    1.25809813
 C                 -1.20289720    0.74892991    2.05009813
 C                 -0.11389720   -0.70607009    0.34909813
 C                 -0.56389720    0.51992991    3.40309813
 C                 -1.37689720    0.30092991    4.52209813
 C                  0.82310280    0.46492991    3.58009813
 C                  1.38110280    0.23392991    4.83909813
 C                 -0.82489720    0.06892991    5.78309813
 C                  0.56010280    0.03992991    5.95009813
 F                  1.08710280   -0.18207009    7.14309813
 C                  2.40710280    3.24792991   -1.73790187
 F                  1.75110280    3.65892991   -2.89590187
 F                  3.05310280    4.36292991   -1.21390187
 F                  3.38410280    2.33392991   -2.12190187
 N                 -0.25589720   -1.44607009   -0.89990187
 C                 -1.21789720   -0.88707009   -1.83790187
 C                 -0.58589720   -2.84207009   -0.65990187
 C                 -1.20489720   -1.67107009   -3.16090187
 N                 -1.51989720   -3.07607009   -2.94290187
 C                 -0.58289720   -3.63507009   -1.97690187
 C                 -1.51689720   -3.85507009   -4.17790187
 C                 -2.56489720   -3.40007009   -5.20590187
 O                 -2.65889720   -4.36107009   -6.23390187
 H                  1.67910280    0.60292991   -1.47290187
 H                  1.03510280    4.52592991    0.26409813
 H                 -0.52589720    3.54292991    1.93609813
 H                 -2.28089720   -0.47207009    0.63709813
 H                 -1.51689720   -1.45807009    1.91909813
 H                 -2.18389720    1.26792991    2.17109813
 H                  0.71410280   -1.16407009    0.94409813
 H                 -2.47389720    0.30692991    4.41209813
 H                  1.50510280    0.60092991    2.72509813
 H                  2.47710280    0.19992991    4.95609813
 H                 -1.48589720   -0.09507009    6.65109813
 H                 -0.97689720    0.17992991   -2.05390187
 H                 -2.25389720   -0.91807009   -1.42690187
 H                 -1.58589720   -2.93107009   -0.17290187
 H                  0.16510280   -3.29507009    0.03109813
 H                 -0.20589720   -1.56707009   -3.64990187
 H                 -1.96189720   -1.20807009   -3.83590187
 H                  0.45110280   -3.64207009   -2.39890187
 H                 -0.85989720   -4.69407009   -1.75290187
 H                 -0.50589720   -3.83707009   -4.64990187
 H                 -1.74389720   -4.91907009   -3.92490187
 H                 -3.57489720   -3.30607009   -4.73790187
 H                 -2.29489720   -2.43107009   -5.68990187
 H                 -3.30589720   -4.05607009   -6.84690187

 1 2 1.5 4 1.5 17 1.0
 2 3 1.5 30 1.0
 3 6 1.5 9 1.0
 4 5 1.5 31 1.0
 5 6 1.5 32 1.0
 6 8 1.0
 7 8 1.0 9 1.0 33 1.0 34 1.0
 8 10 1.0 35 1.0
 9 21 1.0 36 1.0
 10 11 1.5 12 1.5
 11 14 1.5 37 1.0
 12 13 1.5 38 1.0
 13 15 1.5 39 1.0
 14 15 1.5 40 1.0
 15 16 1.0
 16
 17 18 1.0 19 1.0 20 1.0
 18
 19
 20
 21 22 1.0 23 1.0
 22 24 1.0 41 1.0 42 1.0
 23 26 1.0 43 1.0 44 1.0
 24 25 1.0 45 1.0 46 1.0
 25 26 1.0 27 1.0
 26 47 1.0 48 1.0
 27 28 1.0 49 1.0 50 1.0
 28 29 1.0 51 1.0 52 1.0
 29 53 1.0
 30
 31
 32
 33
 34
 35
 36
 37
 38
 39
 40
 41
 42
 43
 44
 45
 46
 47
 48
 49
 50
 51
 52
 53

