# opt uff

tefludazine-2b

0 1
 C                  1.89662617    2.63379439   -0.27678972
 C                  1.89262617    1.23979439   -0.42278972
 C                  0.88462617    0.48079439    0.17121028
 C                  0.93862617    3.22279439    0.56221028
 C                 -0.05237383    2.46479439    1.19121028
 C                 -0.05637383    1.08679439    0.99721028
 C                 -0.10737383   -1.20620561    1.42821028
 C                 -0.97637383    0.06379439    1.59821028
 C                  0.68662617   -1.01820561    0.10421028
 C                 -1.36937383    0.32379439    3.03221028
 C                 -2.69437383    0.15679439    3.45021028
 C                 -0.41937383    0.70479439    3.98721028
 C                 -0.78537383    0.93579439    5.31421028
 C                 -3.06537383    0.38579439    4.77621028
 C                 -2.11237383    0.78079439    5.71621028
 F                 -2.46137383    0.99779439    6.97421028
 C                  3.00862617    3.45979439   -0.87178972
 F                  2.62762617    3.90279439   -2.13578972
 F                  3.30262617    4.58879439   -0.11178972
 F                  4.18662617    2.73579439   -1.02778972
 N                 -0.09037383   -1.43720561   -1.06578972
 C                 -0.20837383   -2.88820561   -1.14378972
 C                  0.48162617   -0.96220561   -2.31778972
 C                 -1.04837383   -3.33420561   -2.35178972
 N                 -0.47637383   -2.85220561   -3.59778972
 C                 -0.35437383   -1.40420561   -3.52978972
 C                 -1.24637383   -3.25520561   -4.77078972
 C                 -1.32137383   -4.77720561   -4.97478972
 O                 -1.85737383   -5.05120561   -6.25078972
 H                  2.66862617    0.73179439   -1.01578972
 H                  0.96062617    4.30979439    0.74221028
 H                 -0.79737383    2.94179439    1.84821028
 H                 -0.71937383   -2.13220561    1.50721028
 H                  0.63662617   -1.25720561    2.25921028
 H                 -1.87337383   -0.00120561    0.93721028
 H                  1.67262617   -1.54220561    0.13721028
 H                 -3.46437383   -0.16220561    2.72721028
 H                  0.63662617    0.82879439    3.69621028
 H                 -0.02137383    1.24079439    6.04921028
 H                 -4.11637383    0.25179439    5.08421028
 H                 -0.69737383   -3.29720561   -0.22978972
 H                  0.80362617   -3.35620561   -1.20778972
 H                  1.53162617   -1.32520561   -2.42978972
 H                  0.49962617    0.15279439   -2.33178972
 H                 -2.09737383   -2.96720561   -2.23678972
 H                 -1.07837383   -4.44920561   -2.34978972
 H                 -1.36537383   -0.93220561   -3.47278972
 H                  0.13862617   -1.02420561   -4.45778972
 H                 -2.28137383   -2.83920561   -4.72278972
 H                 -0.76037383   -2.82520561   -5.67878972
 H                 -0.30737383   -5.24120561   -4.92678972
 H                 -1.98737383   -5.27520561   -4.22878972
 H                 -1.88537383   -5.98820561   -6.34878972

 1 2 1.5 4 1.5 17 1.0
 2 3 1.5 30 1.0
 3 6 1.5 9 1.0
 4 5 1.5 31 1.0
 5 6 1.5 32 1.0
 6 8 1.0
 7 8 1.0 9 1.0 33 1.0 34 1.0
 8 10 1.0 35 1.0
 9 21 1.0 36 1.0
 10 11 1.5 12 1.5
 11 14 1.5 37 1.0
 12 13 1.5 38 1.0
 13 15 1.5 39 1.0
 14 15 1.5 40 1.0
 15 16 1.0
 16
 17 18 1.0 19 1.0 20 1.0
 18
 19
 20
 21 22 1.0 23 1.0
 22 24 1.0 41 1.0 42 1.0
 23 26 1.0 43 1.0 44 1.0
 24 25 1.0 45 1.0 46 1.0
 25 26 1.0 27 1.0
 26 47 1.0 48 1.0
 27 28 1.0 49 1.0 50 1.0
 28 29 1.0 51 1.0 52 1.0
 29 53 1.0
 30
 31
 32
 33
 34
 35
 36
 37
 38
 39
 40
 41
 42
 43
 44
 45
 46
 47
 48
 49
 50
 51
 52
 53

