# opt uff

tefludazine-2c

0 1
 C                  1.27439252    2.55314486   -0.04701402
 C                  1.53639252    1.19114486   -0.24201402
 C                  0.69739252    0.22814486    0.31798598
 C                  0.23239252    2.91714486    0.81698598
 C                 -0.58360748    1.95914486    1.42198598
 C                 -0.32760748    0.61214486    1.17698598
 C                 -0.08060748   -1.72485514    1.40198598
 C                 -1.05160748   -0.57085514    1.75398598
 C                  0.80439252   -1.27485514    0.20698598
 C                 -1.32760748   -0.46785514    3.23598598
 C                 -2.56060748   -0.86885514    3.76298598
 C                 -0.34860748   -0.00585514    4.12398598
 C                 -0.60160748    0.07914486    5.49398598
 C                 -2.81860748   -0.78585514    5.13198598
 C                 -1.84160748   -0.30685514    6.00598598
 F                 -2.08360748   -0.22885514    7.30398598
 C                  2.20639252    3.59914486   -0.60801402
 F                  1.74039252    4.00714486   -1.85501402
 F                  2.28339252    4.73414486    0.19398598
 F                  3.50039252    3.12014486   -0.78901402
 N                  0.36539252   -1.83385514   -1.07401402
 C                  1.28639252   -1.52885514   -2.15901402
 C                 -0.97960748   -1.45385514   -1.47701402
 C                  0.88239252   -2.24785514   -3.45701402
 N                 -0.46060748   -1.86685514   -3.86701402
 C                 -1.38860748   -2.15685514   -2.78301402
 C                 -0.88360748   -2.52185514   -5.10201402
 C                 -0.02060748   -2.16685514   -6.32301402
 O                 -0.65360748   -2.63385514   -7.49401402
 H                  2.40639252    0.87014486   -0.83501402
 H                  0.04539252    3.98014486    1.03898598
 H                 -1.39960748    2.25814486    2.10098598
 H                 -0.60160748   -2.69685514    1.23798598
 H                  0.59939252   -1.88685514    2.27298598
 H                 -2.00860748   -0.66585514    1.19198598
 H                  1.85839252   -1.59185514    0.39998598
 H                 -3.34560748   -1.25885514    3.09298598
 H                  0.64139252    0.29614486    3.74398598
 H                  0.18139252    0.45014486    6.17498598
 H                 -3.79860748   -1.10285514    5.52698598
 H                  2.32039252   -1.84485514   -1.88201402
 H                  1.30439252   -0.43385514   -2.36401402
 H                 -1.05560748   -0.34885514   -1.60801402
 H                 -1.71460748   -1.76085514   -0.69901402
 H                  0.94939252   -3.35285514   -3.31401402
 H                  1.61939252   -1.96285514   -4.24401402
 H                 -1.44360748   -3.25885514   -2.60601402
 H                 -2.41360748   -1.81285514   -3.06301402
 H                 -0.90060748   -3.63085514   -4.97101402
 H                 -1.92860748   -2.20185514   -5.33201402
 H                  0.10139252   -1.06185514   -6.42301402
 H                  0.98739252   -2.64485514   -6.28601402
 H                 -0.10760748   -2.39685514   -8.22301402

 1 2 1.5 4 1.5 17 1.0
 2 3 1.5 30 1.0
 3 6 1.5 9 1.0
 4 5 1.5 31 1.0
 5 6 1.5 32 1.0
 6 8 1.0
 7 8 1.0 9 1.0 33 1.0 34 1.0
 8 10 1.0 35 1.0
 9 21 1.0 36 1.0
 10 11 1.5 12 1.5
 11 14 1.5 37 1.0
 12 13 1.5 38 1.0
 13 15 1.5 39 1.0
 14 15 1.5 40 1.0
 15 16 1.0
 16
 17 18 1.0 19 1.0 20 1.0
 18
 19
 20
 21 22 1.0 23 1.0
 22 24 1.0 41 1.0 42 1.0
 23 26 1.0 43 1.0 44 1.0
 24 25 1.0 45 1.0 46 1.0
 25 26 1.0 27 1.0
 26 47 1.0 48 1.0
 27 28 1.0 49 1.0 50 1.0
 28 29 1.0 51 1.0 52 1.0
 29 53 1.0
 30
 31
 32
 33
 34
 35
 36
 37
 38
 39
 40
 41
 42
 43
 44
 45
 46
 47
 48
 49
 50
 51
 52
 53

