# opt uff

Ach-A

1 1
 C                 -0.09081481   -0.45328395    0.23175309
 C                  0.10118519    0.88371605   -0.50824691
 H                  0.12418519    0.65471605   -1.60124691
 H                 -0.82181481    1.48971605   -0.34024691
 N                  1.28318519    1.68771605   -0.15424691
 H                  0.74918519   -1.15728395    0.02975309
 O                 -1.27181481   -1.04728395   -0.26124691
 H                 -0.22481481   -0.29828395    1.32775309
 C                 -1.62981481   -2.23428395    0.25675309
 O                 -1.02181481   -2.83528395    1.11175309
 C                 -2.91181481   -2.70328395   -0.39624691
 C                  2.51818519    0.94971605   -0.42924691
 C                  1.27618519    2.90971605   -0.96824691
 C                  1.25218519    2.06671605    1.25975309
 H                 -3.22581481   -3.68728395    0.02075309
 H                 -3.73081481   -1.97028395   -0.21324691
 H                 -2.76681481   -2.82128395   -1.49424691
 H                  3.41818519    1.57771605   -0.23224691
 H                  2.61718519    0.04671605    0.21475309
 H                  2.56518519    0.61971605   -1.49324691
 H                  2.15218519    3.55971605   -0.74124691
 H                  1.31218519    2.67571605   -2.05824691
 H                  0.35918519    3.51771605   -0.78524691
 H                  2.10518519    2.73571605    1.51875309
 H                  0.31118519    2.60771605    1.51475309
 H                  1.33118519    1.18171605    1.93075309

 1 2 1.0 6 1.0 7 1.0 8 1.0
 2 3 1.0 4 1.0 5 1.0
 3
 4
 5 12 1.0 13 1.0 14 1.0
 6
 7 9 1.5
 8
 9 10 2.0 11 1.0
 10
 11 15 1.0 16 1.0 17 1.0
 12 18 1.0 19 1.0 20 1.0
 13 21 1.0 22 1.0 23 1.0
 14 24 1.0 25 1.0 26 1.0
 15
 16
 17
 18
 19
 20
 21
 22
 23
 24
 25
 26

