# opt uff

b-Me-Ach-B

1 1
 C                 -0.13703371   -0.78833708   -0.72259551
 C                  0.72996629    0.40366292   -1.18659551
 H                  1.78896629    0.14266292   -0.95359551
 H                  0.66796629    0.43966292   -2.30059551
 N                  0.42696629    1.74766292   -0.66159551
 H                 -1.22003371   -0.53633708   -0.80059551
 O                  0.20196629   -1.09633708    0.61340449
 C                  0.15096629   -2.03833708   -1.57159551
 C                 -0.72003371   -1.67933708    1.39740449
 O                 -1.83603371   -1.99733708    1.05940449
 C                 -0.14403371   -1.86833708    2.78340449
 C                  0.51196629    1.78366292    0.79940449
 C                  1.41196629    2.68966292   -1.20959551
 C                 -0.91003371    2.18466292   -1.07459551
 H                  0.14596629   -0.88633708    3.22040449
 H                 -0.89303371   -2.34133708    3.45840449
 H                  0.75296629   -2.52833708    2.74340449
 H                  0.37996629    2.81966292    1.18840449
 H                 -0.28503371    1.17066292    1.27640449
 H                  1.50096629    1.41366292    1.15840449
 H                  1.22996629    3.72966292   -0.85359551
 H                  2.44996629    2.41666292   -0.90659551
 H                  1.38096629    2.71266292   -2.32359551
 H                 -1.11303371    3.23066292   -0.74759551
 H                 -1.02403371    2.15366292   -2.18359551
 H                 -1.71403371    1.55666292   -0.63159551
 H                  1.22496629   -2.32733708   -1.51059551
 H                 -0.09803371   -1.86333708   -2.64359551
 H                 -0.45403371   -2.91133708   -1.23259551

 1 2 1.0 6 1.0 7 1.0 8 1.0
 2 3 1.0 4 1.0 5 1.0
 3
 4
 5 12 1.0 13 1.0 14 1.0
 6
 7 9 1.5
 8 27 1.0 28 1.0 29 1.0
 9 10 2.0 11 1.0
 10
 11 15 1.0 16 1.0 17 1.0
 12 18 1.0 19 1.0 20 1.0
 13 21 1.0 22 1.0 23 1.0
 14 24 1.0 25 1.0 26 1.0
 15
 16
 17
 18
 19
 20
 21
 22
 23
 24
 25
 26
 27
 28
 29

