# opt uff

b-Me-Ach-C

1 1
 C                 -0.91234831   -0.21058427   -0.46419101
 C                 -0.11034831    1.00941573   -0.98019101
 H                 -0.47934831    1.23741573   -2.00819101
 H                 -0.46134831    1.86241573   -0.34919101
 N                  1.36465169    1.02341573   -0.99419101
 H                 -1.98834831    0.06241573   -0.61019101
 O                 -0.69734831   -0.34158427    0.92380899
 C                 -0.68334831   -1.55658427   -1.16119101
 C                 -1.62034831   -0.95758427    1.67980899
 O                 -2.66734831   -1.41458427    1.28380899
 C                 -1.14134831   -0.99358427    3.11380899
 C                  1.91465169    0.14441573   -2.02919101
 C                  1.80265169    2.39441573   -1.30419101
 C                  1.91765169    0.64541573    0.30680899
 H                 -0.99334831    0.04041573    3.49980899
 H                 -1.88834831   -1.50358427    3.76480899
 H                 -0.17934831   -1.55058427    3.18680899
 H                  3.02165169    0.24741573   -2.10419101
 H                  1.72965169   -0.92858427   -1.82019101
 H                  1.48965169    0.37841573   -3.03319101
 H                  2.91365169    2.47541573   -1.34319101
 H                  1.41165169    2.73341573   -2.29219101
 H                  1.45465169    3.12241573   -0.53519101
 H                  3.02765169    0.74541573    0.32180899
 H                  1.51165169    1.28741573    1.12280899
 H                  1.69565169   -0.41758427    0.55380899
 H                  0.24465169   -2.05558427   -0.80219101
 H                 -0.63534831   -1.43258427   -2.26719101
 H                 -1.51334831   -2.27058427   -0.95519101

 1 2 1.0 6 1.0 7 1.0 8 1.0
 2 3 1.0 4 1.0 5 1.0
 3
 4
 5 12 1.0 13 1.0 14 1.0
 6
 7 9 1.5
 8 27 1.0 28 1.0 29 1.0
 9 10 2.0 11 1.0
 10
 11 15 1.0 16 1.0 17 1.0
 12 18 1.0 19 1.0 20 1.0
 13 21 1.0 22 1.0 23 1.0
 14 24 1.0 25 1.0 26 1.0
 15
 16
 17
 18
 19
 20
 21
 22
 23
 24
 25
 26
 27
 28
 29

