# opt uff

Carbachol-C

1 1
 C                 -0.46359259   -0.82165432   -0.67713580
 C                 -0.38659259    0.58534568   -1.30313580
 H                 -0.41359259    0.45034568   -2.41113580
 H                 -1.33659259    1.11034568   -1.04213580
 N                  0.76340741    1.43934568   -0.96013580
 H                 -1.24759259   -1.41765432   -1.20313580
 O                 -0.86859259   -0.71265432    0.66886420
 H                  0.50440741   -1.36965432   -0.73613580
 C                 -0.92859259   -1.83665432    1.40586420
 O                 -0.66059259   -2.92565432    0.95686420
 N                 -1.30959259   -1.70765432    2.71786420
 C                  2.01840741    0.84734568   -1.43313580
 C                  0.58740741    2.74034568   -1.62013580
 C                  0.84940741    1.65634568    0.48486420
 H                 -1.53459259   -0.78665432    3.09586420
 H                 -1.35359259   -2.55865432    3.28086420
 H                  2.88340741    1.52534568   -1.24213580
 H                  2.25240741   -0.11065432   -0.91813580
 H                  1.98640741    0.64734568   -2.52913580
 H                  1.43540741    3.43034568   -1.40113580
 H                  0.52840741    2.63134568   -2.72813580
 H                 -0.34459259    3.24834568   -1.28013580
 H                  1.66740741    2.36834568    0.74086420
 H                 -0.10059259    2.07734568    0.88886420
 H                  1.07140741    0.71234568    1.03186420

 1 2 1.0 6 1.0 7 1.0 8 1.0
 2 3 1.0 4 1.0 5 1.0
 3
 4
 5 12 1.0 13 1.0 14 1.0
 6
 7 9 1.0
 8
 9 10 2.0 11 1.5
 10
 11 15 1.0 16 1.0
 12 17 1.0 18 1.0 19 1.0
 13 20 1.0 21 1.0 22 1.0
 14 23 1.0 24 1.0 25 1.0
 15
 16
 17
 18
 19
 20
 21
 22
 23
 24
 25

