# opt uff

muscarine-A

1 1
 O                  1.23139175    1.13303093   -0.32040206
 C                  0.07939175    0.30403093   -0.46140206
 C                 -0.87960825    0.68003093    0.68059794
 C                  1.10039175    1.91203093    0.85559794
 C                 -0.40560825    2.08503093    1.05359794
 O                 -0.72060825    2.41303093    2.38459794
 C                  1.86439175    3.23203093    0.70859794
 C                  0.54339175   -1.16996907   -0.51540206
 N                 -0.39460825   -2.22096907   -0.94940206
 C                  0.32839175   -3.49996907   -0.97140206
 C                 -1.52560825   -2.35396907   -0.03140206
 C                 -0.89860825   -1.94896907   -2.29740206
 H                 -1.64560825    2.58503093    2.42459794
 H                  1.48439175    3.82403093   -0.15540206
 H                  2.95039175    3.04703093    0.54459794
 H                 -0.32960825   -4.33996907   -1.29640206
 H                  1.19239175   -3.47296907   -1.67440206
 H                  0.72239175   -3.76296907    0.03859794
 H                 -2.17560825   -3.21596907   -0.30940206
 H                 -1.18360825   -2.51696907    1.01659794
 H                 -2.18360825   -1.45896907   -0.05140206
 H                 -1.54460825   -2.77996907   -2.66540206
 H                 -1.52260825   -1.02696907   -2.32940206
 H                 -0.06460825   -1.82496907   -3.02640206
 H                 -0.74960825   -0.00996907    1.54659794
 H                 -1.95060825    0.69203093    0.37059794
 H                  1.52939175    1.31903093    1.70359794
 H                 -0.82960825    2.86203093    0.37159794
 H                  1.41839175   -1.18596907   -1.20840206
 H                  0.95439175   -1.42496907    0.49059794
 H                  1.75639175    3.85503093    1.62559794
 H                 -0.39160825    0.57303093   -1.41240206

 1 2 1.0 4 1.0
 2 3 1.0 8 1.0 32 1.0
 3 5 1.0 25 1.0 26 1.0
 4 5 1.0 7 1.0 27 1.0
 5 6 1.0 28 1.0
 6 13 1.0
 7 14 1.0 15 1.0 31 1.0
 8 9 1.0 29 1.0 30 1.0
 9 10 1.0 11 1.0 12 1.0
 10 16 1.0 17 1.0 18 1.0
 11 19 1.0 20 1.0 21 1.0
 12 22 1.0 23 1.0 24 1.0
 13
 14
 15
 16
 17
 18
 19
 20
 21
 22
 23
 24
 25
 26
 27
 28
 29
 30
 31
 32

