# opt dreiding

ethylphosphine-g

0 1
 P                  0.35570588   -1.20047059    0.04873529
 C                  0.37570588    0.94952941    0.06673529
 C                 -1.05529412    1.47152941   -0.08426471
 H                  1.50270588   -1.95947059    0.46273529
 H                 -0.33429412   -1.92847059   -0.98026471
 H                  0.82470588    1.26252941    1.03773529
 H                  1.02770588    1.27952941   -0.77426471
 H                 -1.07329412    2.58652941   -0.07626471
 H                 -1.50429412    1.12852941   -1.04426471
 H                 -1.70129412    1.11152941    0.74873529

 1
 2 3 1.0 6 1.0 7 1.0
 3 8 1.0 9 1.0 10 1.0
 4
 5
 6
 7
 8
 9
 10

