# opt dreiding

P-Me-phosphorinane-eq

0 1
 C                 -0.83728125   -1.20412500   -0.17173438
 C                  0.14871875   -1.72812500    0.88626562
 C                  1.57971875   -1.18912500    0.69126562
 P                 -0.80728125    0.60787500   -0.20273438
 C                  1.70371875    0.33587500    0.88326562
 C                  0.92571875    1.13687500   -0.17473438
 H                 -1.86828125   -1.57212500    0.03326562
 H                 -0.53628125   -1.58912500   -1.17273438
 H                  0.16571875   -2.84412500    0.84026562
 H                 -0.21028125   -1.45912500    1.90826562
 H                  1.94971875   -1.46912500   -0.32373438
 H                  2.25271875   -1.69512500    1.42626562
 H                  2.78071875    0.62787500    0.83626562
 H                  1.34571875    0.60787500    1.90626562
 H                  1.37771875    0.95187500   -1.17573438
 H                  0.99571875    2.22987500    0.02926562
 C                 -1.84328125    1.38587500   -1.45873438
 H                 -1.49128125    1.11987500   -2.47973438
 H                 -2.90028125    1.05487500   -1.35973438
 H                 -1.81628125    2.49487500   -1.36073438

 1 2 1.0 4 1.0 7 1.0 8 1.0
 2 3 1.0 9 1.0 10 1.0
 3 5 1.0 11 1.0 12 1.0
 4 6 1.0 17 1.0
 5 6 1.0 13 1.0 14 1.0
 6 15 1.0 16 1.0
 7
 8
 9
 10
 11
 12
 13
 14
 15
 16
 17 18 1.0 19 1.0 20 1.0
 18
 19
 20

