# opt dreiding

P-Me-phosphorinane-ax

0 1
 C                 -0.83539062   -1.18862500   -0.60164062
 C                  0.13360938   -1.72362500    0.46735938
 C                  1.56760937   -1.18062500    0.29735938
 P                 -0.83339062    0.62637500   -0.56164062
 C                  1.69460937    0.34837500    0.46535938
 C                  0.91160938    1.13037500   -0.60364062
 H                 -1.86539062   -1.58362500   -0.44364062
 H                 -0.49239062   -1.53362500   -1.60464062
 H                  0.15360938   -2.83862500    0.40935938
 H                 -0.24139062   -1.46662500    1.48735938
 H                  1.95760937   -1.47562500   -0.70664062
 H                  2.22660937   -1.67562500    1.05135938
 H                  2.77160937    0.63637500    0.40535938
 H                  1.34560937    0.63937500    1.48435938
 H                  1.33660938    0.89437500   -1.60764062
 H                  1.00660938    2.22937500   -0.44864062
 C                 -1.76839062    1.33337500    0.81635938
 H                 -1.34139062    1.01237500    1.79235938
 H                 -1.74739062    2.44537500    0.77835938
 H                 -2.83139063    1.00537500    0.78035938

 1 2 1.0 4 1.0 7 1.0 8 1.0
 2 3 1.0 9 1.0 10 1.0
 3 5 1.0 11 1.0 12 1.0
 4 6 1.0 17 1.0
 5 6 1.0 13 1.0 14 1.0
 6 15 1.0 16 1.0
 7
 8
 9
 10
 11
 12
 13
 14
 15
 16
 17 18 1.0 19 1.0 20 1.0
 18
 19
 20

