$RunGaus
%mem=8000Mb
%nproc=4
# mp2/cc-pVTZ

1-2-dichloroethane-g_single_point

0 1 
 c
cl   1 clc2    
 c    1 cc3         2 cccl3     
cl    3 clc4        1 clcc4         2 dih4   
 h    1 hc5         3 hcc5          4 dih5   
 h    1 hc6         3 hcc6          4 dih6   
 h    3 hc7         1 hcc7          2 dih7   
 h    3 hc8         1 hcc8          2 dih8   
 
clc2        1.809476
cc3         1.515183
cccl3       113.098
clc4        1.809478
clcc4       113.098
dih4        -69.738
hc5         1.090579
hcc5        111.568
dih5         51.073
hc6         1.093006
hcc6        108.960
dih6        171.996
hc7         1.090579
hcc7        111.568
dih7         51.073
hc8         1.093005
hcc8        108.960
dih8        171.996
 
 
 

