$RunGaus
%mem=8000Mb
%nproc=4
# mp2/cc-pVTZ

1-2-dichloroethane-a_single_point

0 1 
 c
cl   1 clc2    
 c    1 cc3         2 cccl3     
cl    3 clc4        1 clcc4         2 dih4   
 h    1 hc5         3 hcc5          4 dih5   
 h    1 hc6         3 hcc6          4 dih6   
 h    3 hc7         1 hcc7          2 dih7   
 h    3 hc8         1 hcc8          2 dih8   
 
clc2        1.815472
cc3         1.518607
cccl3       109.206
clc4        1.815498
clcc4       109.205
dih4       -179.998
hc5         1.089891
hcc5        111.622
dih5        -61.617
hc6         1.089875
hcc6        111.623
dih6         61.621
hc7         1.089876
hcc7        111.624
dih7        -61.618
hc8         1.089890
hcc8        111.623
dih8         61.620
 
 
 

