$RunGaus
%mem=8000Mb
%nproc=4
# mp2/cc-pVTZ

1-2-difluoroethane-a_single_point

0 1 
 c
 f   1 fc2     
 c    1 cc3         2 ccf3      
 f    3 fc4         1 fcc4          2 dih4   
 h    1 hc5         3 hcc5          4 dih5   
 h    1 hc6         3 hcc6          4 dih6   
 h    3 hc7         1 hcc7          2 dih7   
 h    3 hc8         1 hcc8          2 dih8   
 
fc2         1.402936
cc3         1.520509
ccf3        107.885
fc4         1.402936
fcc4        107.884
dih4        179.997
hc5         1.093790
hcc5        111.331
dih5        -61.527
hc6         1.093779
hcc6        111.332
dih6         61.519
hc7         1.093786
hcc7        111.332
dih7        -61.527
hc8         1.093782
hcc8        111.332
dih8         61.519
 
 
 

