$RunGaus
%mem=8000Mb
%nproc=4
# mp2/cc-pVTZ

1-3-dichloropropane-g+-g+_single_point

0 1 
 c
cl   1 clc2    
 c    1 cc3         2 cccl3     
 c    3 cc4         1 ccc4          2 dih4   
cl    4 clc5        3 clcc5         1 dih5   
 h    1 hc6         3 hcc6          4 dih6   
 h    1 hc7         3 hcc7          4 dih7   
 h    3 hc8         1 hcc8          2 dih8   
 h    3 hc9         1 hcc9          2 dih9   
 h    4 hc10        3 hcc10         1 dih10  
 h    4 hc11        3 hcc11         1 dih11  
 
clc2        1.823256
cc3         1.522995
cccl3       112.105
cc4         1.522988
ccc4        115.517
dih4        -64.833
clc5        1.823256
clcc5       112.104
dih5        -64.817
hc6         1.090482
hcc6        111.802
dih6         54.387
hc7         1.090340
hcc7        110.949
dih7        176.936
hc8         1.097547
hcc8        109.403
dih8         56.681
hc9         1.097545
hcc9        107.567
dih9        172.672
hc10        1.090481
hcc10       111.802
dih10        54.402
hc11        1.090341
hcc11       110.950
dih11       176.951
 
 
 

