$RunGaus
%mem=8000Mb
%nproc=4
# mp2/cc-pVTZ

1-3-dichloropropane-a-a_single_point

0 1 
 c
cl   1 clc2    
 c    1 cc3         2 cccl3     
 c    3 cc4         1 ccc4          2 dih4   
cl    4 clc5        3 clcc5         1 dih5   
 h    1 hc6         3 hcc6          4 dih6   
 h    1 hc7         3 hcc7          4 dih7   
 h    3 hc8         1 hcc8          2 dih8   
 h    3 hc9         1 hcc9          2 dih9   
 h    4 hc10        3 hcc10         1 dih10  
 h    4 hc11        3 hcc11         1 dih11  
 
clc2        1.816087
cc3         1.527051
cccl3       111.297
cc4         1.527054
ccc4        110.234
dih4        180.000
clc5        1.816082
clcc5       111.298
dih5        180.000
hc6         1.091838
hcc6        111.901
dih6        -61.342
hc7         1.091838
hcc7        111.901
dih7         61.342
hc8         1.094231
hcc8        109.785
dih8        -58.939
hc9         1.094231
hcc9        109.785
dih9         58.939
hc10        1.091842
hcc10       111.902
dih10       -61.340
hc11        1.091842
hcc11       111.902
dih11        61.340
 
 
 

