$RunGaus
%mem=8000Mb
%nproc=4
# mp2/cc-pVTZ

1-3-dichloropropane-a-g_single_point

0 1 
 c
cl   1 clc2    
 c    1 cc3         2 cccl3     
 c    3 cc4         1 ccc4          2 dih4   
cl    4 clc5        3 clcc5         1 dih5   
 h    1 hc6         3 hcc6          4 dih6   
 h    1 hc7         3 hcc7          4 dih7   
 h    3 hc8         1 hcc8          2 dih8   
 h    3 hc9         1 hcc9          2 dih9   
 h    4 hc10        3 hcc10         1 dih10  
 h    4 hc11        3 hcc11         1 dih11  
 
clc2        1.823066
cc3         1.525172
cccl3       112.632
cc4         1.524184
ccc4        113.170
dih4        -65.194
clc5        1.817400
clcc5       110.969
dih5       -177.046
hc6         1.092070
hcc6        112.094
dih6         54.321
hc7         1.090560
hcc7        110.776
dih7        176.352
hc8         1.094589
hcc8        109.940
dih8         58.123
hc9         1.097615
hcc9        107.176
dih9        174.264
hc10        1.092076
hcc10       111.715
dih10       -58.599
hc11        1.089757
hcc11       111.809
dih11        64.194
 
 
 

