$RunGaus
%mem=8000Mb
%nproc=4
# mp2/cc-pVTZ

chloropropane-a_single_point

0 1 
 c
cl   1 clc2    
 c    1 cc3         2 cccl3     
 c    3 cc4         1 ccc4          2 dih4   
 h    1 hc5         3 hcc5          4 dih5   
 h    1 hc6         3 hcc6          4 dih6   
 h    3 hc7         1 hcc7          2 dih7   
 h    3 hc8         1 hcc8          2 dih8   
 h    4 hc9         3 hcc9          1 dih9   
 h    4 hc10        3 hcc10         1 dih10  
 h    4 hc11        3 hcc11         1 dih11  
 
clc2        1.821267
cc3         1.523167
cccl3       111.929
cc4         1.534955
ccc4        111.325
dih4        179.999
hc5         1.092083
hcc5        111.786
dih5        -61.207
hc6         1.092091
hcc6        111.784
dih6         61.205
hc7         1.095734
hcc7        109.145
dih7        -58.214
hc8         1.095718
hcc8        109.146
dih8         58.210
hc9         1.094566
hcc9        110.571
dih9        180.000
hc10        1.095923
hcc10       111.482
dih10       -60.285
hc11        1.095925
hcc11       111.483
dih11        60.287
 
 
 

