$RunGaus
%mem=8000Mb
%nproc=4
# mp2/cc-pVTZ

chloropropane-g_single_point

0 1 
 c
cl   1 clc2    
 c    1 cc3         2 cccl3     
 c    3 cc4         1 ccc4          2 dih4   
 h    1 hc5         3 hcc5          4 dih5   
 h    1 hc6         3 hcc6          4 dih6   
 h    3 hc7         1 hcc7          2 dih7   
 h    3 hc8         1 hcc8          2 dih8   
 h    4 hc9         3 hcc9          1 dih9   
 h    4 hc10        3 hcc10         1 dih10  
 h    4 hc11        3 hcc11         1 dih11  
 
clc2        1.826716
cc3         1.523338
cccl3       112.617
cc4         1.531216
ccc4        114.616
dih4         65.398
hc5         1.090977
hcc5        111.595
dih5       -176.108
hc6         1.092284
hcc6        111.801
dih6        -53.494
hc7         1.099725
hcc7        106.210
dih7       -173.346
hc8         1.096316
hcc8        109.123
dih8        -58.888
hc9         1.094710
hcc9        110.699
dih9        177.990
hc10        1.093880
hcc10       111.167
dih10       -62.003
hc11        1.096404
hcc11       111.157
dih11        58.235
 
 
 

