$RunGaus
%mem=8000Mb
%nproc=4
# mp2/cc-pVTZ

fluoropropane-g_single_point

0 1 
 c
 f   1 fc2     
 c    1 cc3         2 ccf3      
 c    3 cc4         1 ccc4          2 dih4   
 h    1 hc5         3 hcc5          4 dih5   
 h    1 hc6         3 hcc6          4 dih6   
 h    3 hc7         1 hcc7          2 dih7   
 h    3 hc8         1 hcc8          2 dih8   
 h    4 hc9         3 hcc9          1 dih9   
 h    4 hc10        3 hcc10         1 dih10  
 h    4 hc11        3 hcc11         1 dih11  
 
fc2         1.411621
cc3         1.518155
ccf3        110.303
cc4         1.532481
ccc4        113.687
dih4         63.212
hc5         1.095157
hcc5        111.785
dih5       -178.259
hc6         1.096399
hcc6        111.836
dih6        -55.231
hc7         1.099026
hcc7        107.170
dih7       -174.761
hc8         1.097067
hcc8        108.586
dih8        -59.981
hc9         1.094707
hcc9        110.932
dih9        179.847
hc10        1.093955
hcc10       110.973
dih10       -60.092
hc11        1.096509
hcc11       111.140
dih11        59.952
 
 
 

